<?xml version="1.0" encoding="UTF-8"?>
<routes xmlns:xsi="http://www.w3.org/2001/XMLSchema-instance" xsi:noNamespaceSchemaLocation="http://sumo.dlr.de/xsd/routes_file.xsd">
    <vType id="standard_car" accel="2.6" decel="4.5" sigma="0.5" length="5.0" minGap="2.5" maxSpeed="50.0"/>

    <flow id="flow_0h_305569803#0_to_205342807" type="standard_car" from="305569803#0" to="205342807" begin="0" end="3600" number="4"/>
    <flow id="flow_0h_305569803#0_to_45984395#0" type="standard_car" from="305569803#0" to="45984395#0" begin="0" end="3600" number="4"/>
    <flow id="flow_0h_305569803#0_to_-760061584#2" type="standard_car" from="305569803#0" to="-760061584#2" begin="0" end="3600" number="4"/>
    <flow id="flow_0h_305569803#0_to_1037006522" type="standard_car" from="305569803#0" to="1037006522" begin="0" end="3600" number="4"/>
    <flow id="flow_0h_305569803#0_to_974432101#1" type="standard_car" from="305569803#0" to="974432101#1" begin="0" end="3600" number="5"/>
    <flow id="flow_0h_305569803#0_to_1146054582" type="standard_car" from="305569803#0" to="1146054582" begin="0" end="3600" number="4"/>
    <flow id="flow_0h_1239699361#0_to_305569804#0" type="standard_car" from="1239699361#0" to="305569804#0" begin="0" end="3600" number="5"/>
    <flow id="flow_0h_1239699361#0_to_-760061584#2" type="standard_car" from="1239699361#0" to="-760061584#2" begin="0" end="3600" number="4"/>
    <flow id="flow_0h_1239699361#0_to_45984395#0" type="standard_car" from="1239699361#0" to="45984395#0" begin="0" end="3600" number="4"/>
    <flow id="flow_0h_1239699361#0_to_1037006522" type="standard_car" from="1239699361#0" to="1037006522" begin="0" end="3600" number="4"/>
    <flow id="flow_0h_1239699361#0_to_974432101#1" type="standard_car" from="1239699361#0" to="974432101#1" begin="0" end="3600" number="4"/>
    <flow id="flow_0h_1239699361#0_to_1146054582" type="standard_car" from="1239699361#0" to="1146054582" begin="0" end="3600" number="4"/>
    <flow id="flow_0h_760061584#0_to_45984395#0" type="standard_car" from="760061584#0" to="45984395#0" begin="0" end="3600" number="5"/>
    <flow id="flow_0h_760061584#0_to_1146054582" type="standard_car" from="760061584#0" to="1146054582" begin="0" end="3600" number="5"/>
    <flow id="flow_0h_760061584#0_to_974432101#1" type="standard_car" from="760061584#0" to="974432101#1" begin="0" end="3600" number="5"/>
    <flow id="flow_0h_760061584#0_to_305569804#0" type="standard_car" from="760061584#0" to="305569804#0" begin="0" end="3600" number="5"/>
    <flow id="flow_0h_760061584#0_to_205342807" type="standard_car" from="760061584#0" to="205342807" begin="0" end="3600" number="5"/>
    <flow id="flow_0h_114183414#0_to_974432101#1" type="standard_car" from="114183414#0" to="974432101#1" begin="0" end="3600" number="4"/>
    <flow id="flow_0h_114183414#0_to_117656398" type="standard_car" from="114183414#0" to="117656398" begin="0" end="3600" number="4"/>
    <flow id="flow_0h_114183414#0_to_1146054582" type="standard_car" from="114183414#0" to="1146054582" begin="0" end="3600" number="4"/>
    <flow id="flow_0h_114183414#0_to_305569804#0" type="standard_car" from="114183414#0" to="305569804#0" begin="0" end="3600" number="4"/>
    <flow id="flow_0h_114183414#0_to_205342807" type="standard_car" from="114183414#0" to="205342807" begin="0" end="3600" number="4"/>
    <flow id="flow_0h_114183414#0_to_-760061584#2" type="standard_car" from="114183414#0" to="-760061584#2" begin="0" end="3600" number="5"/>
    <flow id="flow_0h_-1037006522_to_45984395#0" type="standard_car" from="-1037006522" to="45984395#0" begin="0" end="3600" number="1"/>
    <flow id="flow_0h_-1037006522_to_-760061584#2" type="standard_car" from="-1037006522" to="-760061584#2" begin="0" end="3600" number="1"/>
    <flow id="flow_0h_-1037006522_to_205342807" type="standard_car" from="-1037006522" to="205342807" begin="0" end="3600" number="1"/>
    <flow id="flow_0h_-1037006522_to_305569804#0" type="standard_car" from="-1037006522" to="305569804#0" begin="0" end="3600" number="1"/>
    <flow id="flow_0h_-1037006522_to_1146054582" type="standard_car" from="-1037006522" to="1146054582" begin="0" end="3600" number="1"/>
    <flow id="flow_0h_-117656398_to_45984395#0" type="standard_car" from="-117656398" to="45984395#0" begin="0" end="3600" number="1"/>
    <flow id="flow_0h_-117656398_to_-760061584#2" type="standard_car" from="-117656398" to="-760061584#2" begin="0" end="3600" number="1"/>
    <flow id="flow_0h_-117656398_to_205342807" type="standard_car" from="-117656398" to="205342807" begin="0" end="3600" number="1"/>
    <flow id="flow_0h_-117656398_to_305569804#0" type="standard_car" from="-117656398" to="305569804#0" begin="0" end="3600" number="1"/>
    <flow id="flow_0h_-117656398_to_1146054582" type="standard_car" from="-117656398" to="1146054582" begin="0" end="3600" number="1"/>
    <flow id="flow_0h_149726651#0_to_205342807" type="standard_car" from="149726651#0" to="205342807" begin="0" end="3600" number="5"/>
    <flow id="flow_0h_149726651#0_to_45984395#0" type="standard_car" from="149726651#0" to="45984395#0" begin="0" end="3600" number="4"/>
    <flow id="flow_0h_149726651#0_to_-760061584#2" type="standard_car" from="149726651#0" to="-760061584#2" begin="0" end="3600" number="4"/>
    <flow id="flow_0h_149726651#0_to_1037006522" type="standard_car" from="149726651#0" to="1037006522" begin="0" end="3600" number="4"/>
    <flow id="flow_0h_149726651#0_to_305569803#0" type="standard_car" from="149726651#0" to="305569803#0" begin="0" end="3600" number="4"/>
    <flow id="flow_0h_149726651#0_to_1146054582" type="standard_car" from="149726651#0" to="1146054582" begin="0" end="3600" number="4"/>
    <flow id="flow_0h_117358268_to_205342807" type="standard_car" from="117358268" to="205342807" begin="0" end="3600" number="5"/>
    <flow id="flow_0h_117358268_to_45984395#0" type="standard_car" from="117358268" to="45984395#0" begin="0" end="3600" number="5"/>
    <flow id="flow_0h_117358268_to_-760061584#2" type="standard_car" from="117358268" to="-760061584#2" begin="0" end="3600" number="5"/>
    <flow id="flow_0h_117358268_to_117656398" type="standard_car" from="117358268" to="117656398" begin="0" end="3600" number="5"/>
    <flow id="flow_0h_117358268_to_305569803#0" type="standard_car" from="117358268" to="305569803#0" begin="0" end="3600" number="5"/>
    <flow id="flow_1h_305569803#0_to_205342807" type="standard_car" from="305569803#0" to="205342807" begin="3600" end="7200" number="3"/>
    <flow id="flow_1h_305569803#0_to_45984395#0" type="standard_car" from="305569803#0" to="45984395#0" begin="3600" end="7200" number="3"/>
    <flow id="flow_1h_305569803#0_to_-760061584#2" type="standard_car" from="305569803#0" to="-760061584#2" begin="3600" end="7200" number="2"/>
    <flow id="flow_1h_305569803#0_to_1037006522" type="standard_car" from="305569803#0" to="1037006522" begin="3600" end="7200" number="3"/>
    <flow id="flow_1h_305569803#0_to_974432101#1" type="standard_car" from="305569803#0" to="974432101#1" begin="3600" end="7200" number="2"/>
    <flow id="flow_1h_305569803#0_to_1146054582" type="standard_car" from="305569803#0" to="1146054582" begin="3600" end="7200" number="2"/>
    <flow id="flow_1h_1239699361#0_to_305569804#0" type="standard_car" from="1239699361#0" to="305569804#0" begin="3600" end="7200" number="3"/>
    <flow id="flow_1h_1239699361#0_to_-760061584#2" type="standard_car" from="1239699361#0" to="-760061584#2" begin="3600" end="7200" number="3"/>
    <flow id="flow_1h_1239699361#0_to_45984395#0" type="standard_car" from="1239699361#0" to="45984395#0" begin="3600" end="7200" number="2"/>
    <flow id="flow_1h_1239699361#0_to_1037006522" type="standard_car" from="1239699361#0" to="1037006522" begin="3600" end="7200" number="2"/>
    <flow id="flow_1h_1239699361#0_to_974432101#1" type="standard_car" from="1239699361#0" to="974432101#1" begin="3600" end="7200" number="3"/>
    <flow id="flow_1h_1239699361#0_to_1146054582" type="standard_car" from="1239699361#0" to="1146054582" begin="3600" end="7200" number="2"/>
    <flow id="flow_1h_760061584#0_to_45984395#0" type="standard_car" from="760061584#0" to="45984395#0" begin="3600" end="7200" number="3"/>
    <flow id="flow_1h_760061584#0_to_1146054582" type="standard_car" from="760061584#0" to="1146054582" begin="3600" end="7200" number="3"/>
    <flow id="flow_1h_760061584#0_to_974432101#1" type="standard_car" from="760061584#0" to="974432101#1" begin="3600" end="7200" number="3"/>
    <flow id="flow_1h_760061584#0_to_305569804#0" type="standard_car" from="760061584#0" to="305569804#0" begin="3600" end="7200" number="3"/>
    <flow id="flow_1h_760061584#0_to_205342807" type="standard_car" from="760061584#0" to="205342807" begin="3600" end="7200" number="3"/>
    <flow id="flow_1h_114183414#0_to_974432101#1" type="standard_car" from="114183414#0" to="974432101#1" begin="3600" end="7200" number="3"/>
    <flow id="flow_1h_114183414#0_to_117656398" type="standard_car" from="114183414#0" to="117656398" begin="3600" end="7200" number="3"/>
    <flow id="flow_1h_114183414#0_to_1146054582" type="standard_car" from="114183414#0" to="1146054582" begin="3600" end="7200" number="2"/>
    <flow id="flow_1h_114183414#0_to_305569804#0" type="standard_car" from="114183414#0" to="305569804#0" begin="3600" end="7200" number="2"/>
    <flow id="flow_1h_114183414#0_to_205342807" type="standard_car" from="114183414#0" to="205342807" begin="3600" end="7200" number="2"/>
    <flow id="flow_1h_114183414#0_to_-760061584#2" type="standard_car" from="114183414#0" to="-760061584#2" begin="3600" end="7200" number="3"/>
    <flow id="flow_1h_-1037006522_to_-760061584#2" type="standard_car" from="-1037006522" to="-760061584#2" begin="3600" end="7200" number="1"/>
    <flow id="flow_1h_-1037006522_to_205342807" type="standard_car" from="-1037006522" to="205342807" begin="3600" end="7200" number="1"/>
    <flow id="flow_1h_-1037006522_to_1146054582" type="standard_car" from="-1037006522" to="1146054582" begin="3600" end="7200" number="1"/>
    <flow id="flow_1h_-117656398_to_45984395#0" type="standard_car" from="-117656398" to="45984395#0" begin="3600" end="7200" number="1"/>
    <flow id="flow_1h_-117656398_to_305569804#0" type="standard_car" from="-117656398" to="305569804#0" begin="3600" end="7200" number="1"/>
    <flow id="flow_1h_-117656398_to_1146054582" type="standard_car" from="-117656398" to="1146054582" begin="3600" end="7200" number="1"/>
    <flow id="flow_1h_149726651#0_to_205342807" type="standard_car" from="149726651#0" to="205342807" begin="3600" end="7200" number="2"/>
    <flow id="flow_1h_149726651#0_to_45984395#0" type="standard_car" from="149726651#0" to="45984395#0" begin="3600" end="7200" number="2"/>
    <flow id="flow_1h_149726651#0_to_-760061584#2" type="standard_car" from="149726651#0" to="-760061584#2" begin="3600" end="7200" number="3"/>
    <flow id="flow_1h_149726651#0_to_1037006522" type="standard_car" from="149726651#0" to="1037006522" begin="3600" end="7200" number="2"/>
    <flow id="flow_1h_149726651#0_to_305569803#0" type="standard_car" from="149726651#0" to="305569803#0" begin="3600" end="7200" number="3"/>
    <flow id="flow_1h_149726651#0_to_1146054582" type="standard_car" from="149726651#0" to="1146054582" begin="3600" end="7200" number="3"/>
    <flow id="flow_1h_117358268_to_205342807" type="standard_car" from="117358268" to="205342807" begin="3600" end="7200" number="3"/>
    <flow id="flow_1h_117358268_to_45984395#0" type="standard_car" from="117358268" to="45984395#0" begin="3600" end="7200" number="3"/>
    <flow id="flow_1h_117358268_to_-760061584#2" type="standard_car" from="117358268" to="-760061584#2" begin="3600" end="7200" number="3"/>
    <flow id="flow_1h_117358268_to_117656398" type="standard_car" from="117358268" to="117656398" begin="3600" end="7200" number="3"/>
    <flow id="flow_1h_117358268_to_305569803#0" type="standard_car" from="117358268" to="305569803#0" begin="3600" end="7200" number="3"/>
    <flow id="flow_2h_305569803#0_to_205342807" type="standard_car" from="305569803#0" to="205342807" begin="7200" end="10800" number="2"/>
    <flow id="flow_2h_305569803#0_to_45984395#0" type="standard_car" from="305569803#0" to="45984395#0" begin="7200" end="10800" number="1"/>
    <flow id="flow_2h_305569803#0_to_-760061584#2" type="standard_car" from="305569803#0" to="-760061584#2" begin="7200" end="10800" number="2"/>
    <flow id="flow_2h_305569803#0_to_1037006522" type="standard_car" from="305569803#0" to="1037006522" begin="7200" end="10800" number="1"/>
    <flow id="flow_2h_305569803#0_to_974432101#1" type="standard_car" from="305569803#0" to="974432101#1" begin="7200" end="10800" number="2"/>
    <flow id="flow_2h_305569803#0_to_1146054582" type="standard_car" from="305569803#0" to="1146054582" begin="7200" end="10800" number="2"/>
    <flow id="flow_2h_1239699361#0_to_305569804#0" type="standard_car" from="1239699361#0" to="305569804#0" begin="7200" end="10800" number="2"/>
    <flow id="flow_2h_1239699361#0_to_-760061584#2" type="standard_car" from="1239699361#0" to="-760061584#2" begin="7200" end="10800" number="2"/>
    <flow id="flow_2h_1239699361#0_to_45984395#0" type="standard_car" from="1239699361#0" to="45984395#0" begin="7200" end="10800" number="2"/>
    <flow id="flow_2h_1239699361#0_to_1037006522" type="standard_car" from="1239699361#0" to="1037006522" begin="7200" end="10800" number="2"/>
    <flow id="flow_2h_1239699361#0_to_974432101#1" type="standard_car" from="1239699361#0" to="974432101#1" begin="7200" end="10800" number="1"/>
    <flow id="flow_2h_1239699361#0_to_1146054582" type="standard_car" from="1239699361#0" to="1146054582" begin="7200" end="10800" number="1"/>
    <flow id="flow_2h_760061584#0_to_45984395#0" type="standard_car" from="760061584#0" to="45984395#0" begin="7200" end="10800" number="2"/>
    <flow id="flow_2h_760061584#0_to_1146054582" type="standard_car" from="760061584#0" to="1146054582" begin="7200" end="10800" number="2"/>
    <flow id="flow_2h_760061584#0_to_974432101#1" type="standard_car" from="760061584#0" to="974432101#1" begin="7200" end="10800" number="2"/>
    <flow id="flow_2h_760061584#0_to_305569804#0" type="standard_car" from="760061584#0" to="305569804#0" begin="7200" end="10800" number="2"/>
    <flow id="flow_2h_760061584#0_to_205342807" type="standard_car" from="760061584#0" to="205342807" begin="7200" end="10800" number="2"/>
    <flow id="flow_2h_114183414#0_to_974432101#1" type="standard_car" from="114183414#0" to="974432101#1" begin="7200" end="10800" number="1"/>
    <flow id="flow_2h_114183414#0_to_117656398" type="standard_car" from="114183414#0" to="117656398" begin="7200" end="10800" number="2"/>
    <flow id="flow_2h_114183414#0_to_1146054582" type="standard_car" from="114183414#0" to="1146054582" begin="7200" end="10800" number="2"/>
    <flow id="flow_2h_114183414#0_to_305569804#0" type="standard_car" from="114183414#0" to="305569804#0" begin="7200" end="10800" number="1"/>
    <flow id="flow_2h_114183414#0_to_205342807" type="standard_car" from="114183414#0" to="205342807" begin="7200" end="10800" number="2"/>
    <flow id="flow_2h_114183414#0_to_-760061584#2" type="standard_car" from="114183414#0" to="-760061584#2" begin="7200" end="10800" number="2"/>
    <flow id="flow_2h_-1037006522_to_205342807" type="standard_car" from="-1037006522" to="205342807" begin="7200" end="10800" number="1"/>
    <flow id="flow_2h_-1037006522_to_1146054582" type="standard_car" from="-1037006522" to="1146054582" begin="7200" end="10800" number="1"/>
    <flow id="flow_2h_-117656398_to_45984395#0" type="standard_car" from="-117656398" to="45984395#0" begin="7200" end="10800" number="1"/>
    <flow id="flow_2h_-117656398_to_-760061584#2" type="standard_car" from="-117656398" to="-760061584#2" begin="7200" end="10800" number="1"/>
    <flow id="flow_2h_149726651#0_to_205342807" type="standard_car" from="149726651#0" to="205342807" begin="7200" end="10800" number="1"/>
    <flow id="flow_2h_149726651#0_to_45984395#0" type="standard_car" from="149726651#0" to="45984395#0" begin="7200" end="10800" number="1"/>
    <flow id="flow_2h_149726651#0_to_-760061584#2" type="standard_car" from="149726651#0" to="-760061584#2" begin="7200" end="10800" number="2"/>
    <flow id="flow_2h_149726651#0_to_1037006522" type="standard_car" from="149726651#0" to="1037006522" begin="7200" end="10800" number="2"/>
    <flow id="flow_2h_149726651#0_to_305569803#0" type="standard_car" from="149726651#0" to="305569803#0" begin="7200" end="10800" number="2"/>
    <flow id="flow_2h_149726651#0_to_1146054582" type="standard_car" from="149726651#0" to="1146054582" begin="7200" end="10800" number="2"/>
    <flow id="flow_2h_117358268_to_205342807" type="standard_car" from="117358268" to="205342807" begin="7200" end="10800" number="2"/>
    <flow id="flow_2h_117358268_to_45984395#0" type="standard_car" from="117358268" to="45984395#0" begin="7200" end="10800" number="2"/>
    <flow id="flow_2h_117358268_to_-760061584#2" type="standard_car" from="117358268" to="-760061584#2" begin="7200" end="10800" number="2"/>
    <flow id="flow_2h_117358268_to_117656398" type="standard_car" from="117358268" to="117656398" begin="7200" end="10800" number="2"/>
    <flow id="flow_2h_117358268_to_305569803#0" type="standard_car" from="117358268" to="305569803#0" begin="7200" end="10800" number="2"/>
    <flow id="flow_3h_305569803#0_to_205342807" type="standard_car" from="305569803#0" to="205342807" begin="10800" end="14400" number="2"/>
    <flow id="flow_3h_305569803#0_to_45984395#0" type="standard_car" from="305569803#0" to="45984395#0" begin="10800" end="14400" number="1"/>
    <flow id="flow_3h_305569803#0_to_-760061584#2" type="standard_car" from="305569803#0" to="-760061584#2" begin="10800" end="14400" number="2"/>
    <flow id="flow_3h_305569803#0_to_1037006522" type="standard_car" from="305569803#0" to="1037006522" begin="10800" end="14400" number="1"/>
    <flow id="flow_3h_305569803#0_to_974432101#1" type="standard_car" from="305569803#0" to="974432101#1" begin="10800" end="14400" number="2"/>
    <flow id="flow_3h_305569803#0_to_1146054582" type="standard_car" from="305569803#0" to="1146054582" begin="10800" end="14400" number="2"/>
    <flow id="flow_3h_1239699361#0_to_305569804#0" type="standard_car" from="1239699361#0" to="305569804#0" begin="10800" end="14400" number="2"/>
    <flow id="flow_3h_1239699361#0_to_-760061584#2" type="standard_car" from="1239699361#0" to="-760061584#2" begin="10800" end="14400" number="2"/>
    <flow id="flow_3h_1239699361#0_to_45984395#0" type="standard_car" from="1239699361#0" to="45984395#0" begin="10800" end="14400" number="2"/>
    <flow id="flow_3h_1239699361#0_to_1037006522" type="standard_car" from="1239699361#0" to="1037006522" begin="10800" end="14400" number="1"/>
    <flow id="flow_3h_1239699361#0_to_974432101#1" type="standard_car" from="1239699361#0" to="974432101#1" begin="10800" end="14400" number="2"/>
    <flow id="flow_3h_1239699361#0_to_1146054582" type="standard_car" from="1239699361#0" to="1146054582" begin="10800" end="14400" number="1"/>
    <flow id="flow_3h_760061584#0_to_45984395#0" type="standard_car" from="760061584#0" to="45984395#0" begin="10800" end="14400" number="2"/>
    <flow id="flow_3h_760061584#0_to_1146054582" type="standard_car" from="760061584#0" to="1146054582" begin="10800" end="14400" number="2"/>
    <flow id="flow_3h_760061584#0_to_974432101#1" type="standard_car" from="760061584#0" to="974432101#1" begin="10800" end="14400" number="2"/>
    <flow id="flow_3h_760061584#0_to_305569804#0" type="standard_car" from="760061584#0" to="305569804#0" begin="10800" end="14400" number="2"/>
    <flow id="flow_3h_760061584#0_to_205342807" type="standard_car" from="760061584#0" to="205342807" begin="10800" end="14400" number="2"/>
    <flow id="flow_3h_114183414#0_to_974432101#1" type="standard_car" from="114183414#0" to="974432101#1" begin="10800" end="14400" number="1"/>
    <flow id="flow_3h_114183414#0_to_117656398" type="standard_car" from="114183414#0" to="117656398" begin="10800" end="14400" number="2"/>
    <flow id="flow_3h_114183414#0_to_1146054582" type="standard_car" from="114183414#0" to="1146054582" begin="10800" end="14400" number="2"/>
    <flow id="flow_3h_114183414#0_to_305569804#0" type="standard_car" from="114183414#0" to="305569804#0" begin="10800" end="14400" number="2"/>
    <flow id="flow_3h_114183414#0_to_205342807" type="standard_car" from="114183414#0" to="205342807" begin="10800" end="14400" number="2"/>
    <flow id="flow_3h_114183414#0_to_-760061584#2" type="standard_car" from="114183414#0" to="-760061584#2" begin="10800" end="14400" number="1"/>
    <flow id="flow_3h_-1037006522_to_-760061584#2" type="standard_car" from="-1037006522" to="-760061584#2" begin="10800" end="14400" number="1"/>
    <flow id="flow_3h_-1037006522_to_205342807" type="standard_car" from="-1037006522" to="205342807" begin="10800" end="14400" number="1"/>
    <flow id="flow_3h_-117656398_to_205342807" type="standard_car" from="-117656398" to="205342807" begin="10800" end="14400" number="1"/>
    <flow id="flow_3h_-117656398_to_305569804#0" type="standard_car" from="-117656398" to="305569804#0" begin="10800" end="14400" number="1"/>
    <flow id="flow_3h_149726651#0_to_205342807" type="standard_car" from="149726651#0" to="205342807" begin="10800" end="14400" number="2"/>
    <flow id="flow_3h_149726651#0_to_45984395#0" type="standard_car" from="149726651#0" to="45984395#0" begin="10800" end="14400" number="1"/>
    <flow id="flow_3h_149726651#0_to_-760061584#2" type="standard_car" from="149726651#0" to="-760061584#2" begin="10800" end="14400" number="2"/>
    <flow id="flow_3h_149726651#0_to_1037006522" type="standard_car" from="149726651#0" to="1037006522" begin="10800" end="14400" number="1"/>
    <flow id="flow_3h_149726651#0_to_305569803#0" type="standard_car" from="149726651#0" to="305569803#0" begin="10800" end="14400" number="2"/>
    <flow id="flow_3h_149726651#0_to_1146054582" type="standard_car" from="149726651#0" to="1146054582" begin="10800" end="14400" number="2"/>
    <flow id="flow_3h_117358268_to_205342807" type="standard_car" from="117358268" to="205342807" begin="10800" end="14400" number="2"/>
    <flow id="flow_3h_117358268_to_45984395#0" type="standard_car" from="117358268" to="45984395#0" begin="10800" end="14400" number="2"/>
    <flow id="flow_3h_117358268_to_-760061584#2" type="standard_car" from="117358268" to="-760061584#2" begin="10800" end="14400" number="2"/>
    <flow id="flow_3h_117358268_to_117656398" type="standard_car" from="117358268" to="117656398" begin="10800" end="14400" number="2"/>
    <flow id="flow_3h_117358268_to_305569803#0" type="standard_car" from="117358268" to="305569803#0" begin="10800" end="14400" number="2"/>
    <flow id="flow_4h_305569803#0_to_205342807" type="standard_car" from="305569803#0" to="205342807" begin="14400" end="18000" number="4"/>
    <flow id="flow_4h_305569803#0_to_45984395#0" type="standard_car" from="305569803#0" to="45984395#0" begin="14400" end="18000" number="4"/>
    <flow id="flow_4h_305569803#0_to_-760061584#2" type="standard_car" from="305569803#0" to="-760061584#2" begin="14400" end="18000" number="4"/>
    <flow id="flow_4h_305569803#0_to_1037006522" type="standard_car" from="305569803#0" to="1037006522" begin="14400" end="18000" number="4"/>
    <flow id="flow_4h_305569803#0_to_974432101#1" type="standard_car" from="305569803#0" to="974432101#1" begin="14400" end="18000" number="4"/>
    <flow id="flow_4h_305569803#0_to_1146054582" type="standard_car" from="305569803#0" to="1146054582" begin="14400" end="18000" number="5"/>
    <flow id="flow_4h_1239699361#0_to_305569804#0" type="standard_car" from="1239699361#0" to="305569804#0" begin="14400" end="18000" number="4"/>
    <flow id="flow_4h_1239699361#0_to_-760061584#2" type="standard_car" from="1239699361#0" to="-760061584#2" begin="14400" end="18000" number="4"/>
    <flow id="flow_4h_1239699361#0_to_45984395#0" type="standard_car" from="1239699361#0" to="45984395#0" begin="14400" end="18000" number="4"/>
    <flow id="flow_4h_1239699361#0_to_1037006522" type="standard_car" from="1239699361#0" to="1037006522" begin="14400" end="18000" number="4"/>
    <flow id="flow_4h_1239699361#0_to_974432101#1" type="standard_car" from="1239699361#0" to="974432101#1" begin="14400" end="18000" number="5"/>
    <flow id="flow_4h_1239699361#0_to_1146054582" type="standard_car" from="1239699361#0" to="1146054582" begin="14400" end="18000" number="4"/>
    <flow id="flow_4h_760061584#0_to_45984395#0" type="standard_car" from="760061584#0" to="45984395#0" begin="14400" end="18000" number="5"/>
    <flow id="flow_4h_760061584#0_to_1146054582" type="standard_car" from="760061584#0" to="1146054582" begin="14400" end="18000" number="5"/>
    <flow id="flow_4h_760061584#0_to_974432101#1" type="standard_car" from="760061584#0" to="974432101#1" begin="14400" end="18000" number="5"/>
    <flow id="flow_4h_760061584#0_to_305569804#0" type="standard_car" from="760061584#0" to="305569804#0" begin="14400" end="18000" number="5"/>
    <flow id="flow_4h_760061584#0_to_205342807" type="standard_car" from="760061584#0" to="205342807" begin="14400" end="18000" number="5"/>
    <flow id="flow_4h_114183414#0_to_974432101#1" type="standard_car" from="114183414#0" to="974432101#1" begin="14400" end="18000" number="4"/>
    <flow id="flow_4h_114183414#0_to_117656398" type="standard_car" from="114183414#0" to="117656398" begin="14400" end="18000" number="4"/>
    <flow id="flow_4h_114183414#0_to_1146054582" type="standard_car" from="114183414#0" to="1146054582" begin="14400" end="18000" number="4"/>
    <flow id="flow_4h_114183414#0_to_305569804#0" type="standard_car" from="114183414#0" to="305569804#0" begin="14400" end="18000" number="5"/>
    <flow id="flow_4h_114183414#0_to_205342807" type="standard_car" from="114183414#0" to="205342807" begin="14400" end="18000" number="4"/>
    <flow id="flow_4h_114183414#0_to_-760061584#2" type="standard_car" from="114183414#0" to="-760061584#2" begin="14400" end="18000" number="4"/>
    <flow id="flow_4h_-1037006522_to_45984395#0" type="standard_car" from="-1037006522" to="45984395#0" begin="14400" end="18000" number="1"/>
    <flow id="flow_4h_-1037006522_to_-760061584#2" type="standard_car" from="-1037006522" to="-760061584#2" begin="14400" end="18000" number="1"/>
    <flow id="flow_4h_-1037006522_to_205342807" type="standard_car" from="-1037006522" to="205342807" begin="14400" end="18000" number="1"/>
    <flow id="flow_4h_-1037006522_to_305569804#0" type="standard_car" from="-1037006522" to="305569804#0" begin="14400" end="18000" number="1"/>
    <flow id="flow_4h_-1037006522_to_1146054582" type="standard_car" from="-1037006522" to="1146054582" begin="14400" end="18000" number="1"/>
    <flow id="flow_4h_-117656398_to_-760061584#2" type="standard_car" from="-117656398" to="-760061584#2" begin="14400" end="18000" number="1"/>
    <flow id="flow_4h_-117656398_to_205342807" type="standard_car" from="-117656398" to="205342807" begin="14400" end="18000" number="1"/>
    <flow id="flow_4h_-117656398_to_305569804#0" type="standard_car" from="-117656398" to="305569804#0" begin="14400" end="18000" number="1"/>
    <flow id="flow_4h_-117656398_to_1146054582" type="standard_car" from="-117656398" to="1146054582" begin="14400" end="18000" number="1"/>
    <flow id="flow_4h_-117656398_to_974432101#1" type="standard_car" from="-117656398" to="974432101#1" begin="14400" end="18000" number="1"/>
    <flow id="flow_4h_149726651#0_to_205342807" type="standard_car" from="149726651#0" to="205342807" begin="14400" end="18000" number="4"/>
    <flow id="flow_4h_149726651#0_to_45984395#0" type="standard_car" from="149726651#0" to="45984395#0" begin="14400" end="18000" number="4"/>
    <flow id="flow_4h_149726651#0_to_-760061584#2" type="standard_car" from="149726651#0" to="-760061584#2" begin="14400" end="18000" number="4"/>
    <flow id="flow_4h_149726651#0_to_1037006522" type="standard_car" from="149726651#0" to="1037006522" begin="14400" end="18000" number="5"/>
    <flow id="flow_4h_149726651#0_to_305569803#0" type="standard_car" from="149726651#0" to="305569803#0" begin="14400" end="18000" number="4"/>
    <flow id="flow_4h_149726651#0_to_1146054582" type="standard_car" from="149726651#0" to="1146054582" begin="14400" end="18000" number="4"/>
    <flow id="flow_4h_117358268_to_205342807" type="standard_car" from="117358268" to="205342807" begin="14400" end="18000" number="5"/>
    <flow id="flow_4h_117358268_to_45984395#0" type="standard_car" from="117358268" to="45984395#0" begin="14400" end="18000" number="5"/>
    <flow id="flow_4h_117358268_to_-760061584#2" type="standard_car" from="117358268" to="-760061584#2" begin="14400" end="18000" number="5"/>
    <flow id="flow_4h_117358268_to_117656398" type="standard_car" from="117358268" to="117656398" begin="14400" end="18000" number="5"/>
    <flow id="flow_4h_117358268_to_305569803#0" type="standard_car" from="117358268" to="305569803#0" begin="14400" end="18000" number="5"/>
    <flow id="flow_5h_305569803#0_to_205342807" type="standard_car" from="305569803#0" to="205342807" begin="18000" end="21600" number="12"/>
    <flow id="flow_5h_305569803#0_to_45984395#0" type="standard_car" from="305569803#0" to="45984395#0" begin="18000" end="21600" number="12"/>
    <flow id="flow_5h_305569803#0_to_-760061584#2" type="standard_car" from="305569803#0" to="-760061584#2" begin="18000" end="21600" number="12"/>
    <flow id="flow_5h_305569803#0_to_1037006522" type="standard_car" from="305569803#0" to="1037006522" begin="18000" end="21600" number="13"/>
    <flow id="flow_5h_305569803#0_to_974432101#1" type="standard_car" from="305569803#0" to="974432101#1" begin="18000" end="21600" number="13"/>