<?xml version="1.0" encoding="UTF-8"?>

<!-- generated on 2026-01-19 00:52:53 by Eclipse SUMO netedit Version 1.24.0
<neteditConfiguration xmlns:xsi="http://www.w3.org/2001/XMLSchema-instance" xsi:noNamespaceSchemaLocation="http://sumo.dlr.de/xsd/neteditConfiguration.xsd">

    <input>
        <sumo-net-file value="D:\OneDrive\OneDrive - Politechnika Warszawska\Pulpit\pbad\networks\warszawa\medium\warszawa_medium.net.xml"/>
    </input>

    <output>
        <output-file value="D:\OneDrive\OneDrive - Politechnika Warszawska\Pulpit\pbad\networks\warszawa\medium\warszawa_medium.net.xml"/>
    </output>

    <processing>
        <geometry.min-radius.fix.railways value="false"/>
        <geometry.avoid-overlap value="false"/>
        <geometry.max-grade.fix value="false"/>
        <offset.disable-normalization value="true"/>
        <lefthand value="0"/>
    </processing>

    <junctions>
        <no-turnarounds value="true"/>
        <junctions.corner-detail value="5"/>
        <junctions.limit-turn-speed value="5.50"/>
        <rectangular-lane-cut value="0"/>
    </junctions>

    <pedestrian>
        <walkingareas value="0"/>
    </pedestrian>

</neteditConfiguration>
-->

<net version="1.20" junctionCornerDetail="5" limitTurnSpeed="5.50" avoidOverlap="0" xmlns:xsi="http://www.w3.org/2001/XMLSchema-instance" xsi:noNamespaceSchemaLocation="http://sumo.dlr.de/xsd/net_file.xsd">

    <location netOffset="-499711.86,-5785989.86" convBoundary="535.18,429.36,2107.95,1544.82" origBoundary="20.995781,52.219600,21.026708,52.246619" projParameter="+proj=utm +zone=34 +ellps=WGS84 +datum=WGS84 +units=m +no_defs"/>

    <type id="highway.living_street" priority="2" numLanes="1" speed="2.78" disallow="tram rail_urban rail rail_electric rail_fast ship container cable_car subway aircraft wheelchair scooter drone" oneway="0"/>
    <type id="highway.residential" priority="3" numLanes="1" speed="13.89" disallow="tram rail_urban rail rail_electric rail_fast ship container cable_car subway aircraft wheelchair scooter drone" oneway="0"/>
    <type id="highway.secondary" priority="11" numLanes="1" speed="27.78" disallow="tram rail_urban rail rail_electric rail_fast ship container cable_car subway aircraft wheelchair scooter drone" oneway="0"/>
    <type id="highway.secondary_link" priority="6" numLanes="1" speed="22.22" disallow="tram rail_urban rail rail_electric rail_fast ship container cable_car subway aircraft wheelchair scooter drone" oneway="0"/>
    <type id="highway.service" priority="1" numLanes="1" speed="5.56" allow="pedestrian delivery bicycle" oneway="0"/>
    <type id="highway.tertiary" priority="10" numLanes="1" speed="22.22" disallow="tram rail_urban rail rail_electric rail_fast ship container cable_car subway aircraft wheelchair scooter drone" oneway="0"/>
    <type id="highway.unclassified" priority="4" numLanes="1" speed="13.89" disallow="tram rail_urban rail rail_electric rail_fast ship container cable_car subway aircraft wheelchair scooter drone" oneway="0"/>
    <type id="railway.rail" priority="20" numLanes="1" speed="44.44" allow="rail" oneway="1"/>

    <edge id=":10169336021_0" function="internal">
        <lane id=":10169336021_0_0" index="0" disallow="tram rail_urban rail rail_electric rail_fast ship container cable_car subway aircraft wheelchair scooter drone" speed="13.89" length="8.21" shape="1116.14,1069.12 1116.89,1066.84 1117.05,1065.15 1117.20,1063.46 1117.95,1061.17"/>
    </edge>
    <edge id=":105757851_0" function="internal">
        <lane id=":105757851_0_0" index="0" disallow="tram rail_urban rail rail_electric rail_fast ship container cable_car subway aircraft wheelchair scooter drone" speed="13.89" length="0.30" shape="944.00,548.25 944.29,548.33"/>
        <lane id=":105757851_0_1" index="1" disallow="tram rail_urban rail rail_electric rail_fast ship container cable_car subway aircraft wheelchair scooter drone" speed="13.89" length="0.30" shape="943.19,551.35 943.49,551.43"/>
        <lane id=":105757851_0_2" index="2" disallow="tram rail_urban rail rail_electric rail_fast ship container cable_car subway aircraft wheelchair scooter drone" speed="13.89" length="0.30" shape="942.39,554.45 942.68,554.52"/>
    </edge>
    <edge id=":10652703437_0" function="internal">
        <lane id=":10652703437_0_0" index="0" disallow="pedestrian tram rail_urban rail rail_electric rail_fast ship container cable_car subway aircraft wheelchair scooter drone" speed="13.89" length="7.31" shape="1142.89,509.17 1142.46,511.28 1142.54,512.80 1142.61,514.32 1142.19,516.42"/>
        <lane id=":10652703437_0_1" index="1" disallow="pedestrian tram rail_urban rail rail_electric rail_fast ship container cable_car subway aircraft wheelchair scooter drone" speed="13.89" length="7.31" shape="1139.85,508.18 1139.42,510.28 1139.50,511.80 1139.58,513.31 1139.15,515.41"/>
        <lane id=":10652703437_0_2" index="2" disallow="pedestrian tram rail_urban rail rail_electric rail_fast ship container cable_car subway aircraft wheelchair scooter drone" speed="13.89" length="7.31" shape="1136.80,507.19 1136.38,509.28 1136.46,510.79 1136.54,512.30 1136.11,514.40"/>
        <lane id=":10652703437_0_3" index="3" disallow="pedestrian tram rail_urban rail rail_electric rail_fast ship container cable_car subway aircraft wheelchair scooter drone" speed="13.89" length="7.31" shape="1136.80,507.19 1135.91,509.12 1134.94,510.29 1133.98,511.45 1133.08,513.39"/>
    </edge>
    <edge id=":10657333174_0" function="internal">
        <lane id=":10657333174_0_0" index="0" disallow="tram rail_urban rail rail_electric rail_fast ship container cable_car subway aircraft wheelchair scooter drone" speed="13.89" length="2.98" shape="1109.95,718.81 1112.76,719.80"/>
    </edge>
    <edge id=":10665359278_0" function="internal">
        <lane id=":10665359278_0_0" index="0" disallow="tram rail_urban rail rail_electric rail_fast ship container cable_car subway aircraft wheelchair scooter drone" speed="13.89" length="6.75" shape="567.19,1115.26 565.48,1114.66 564.18,1114.66 562.85,1114.76 561.03,1114.44"/>
        <lane id=":10665359278_0_1" index="1" disallow="tram rail_urban rail rail_electric rail_fast ship container cable_car subway aircraft wheelchair scooter drone" speed="13.89" length="6.75" shape="568.66,1112.42 566.81,1111.74 565.41,1111.70 563.96,1111.75 561.98,1111.39"/>
        <lane id=":10665359278_0_2" index="2" disallow="tram rail_urban rail rail_electric rail_fast ship container cable_car subway aircraft wheelchair scooter drone" speed="13.89" length="6.75" shape="568.66,1112.42 566.92,1111.24 565.89,1110.16 564.81,1109.19 562.93,1108.33"/>
    </edge>
    <edge id=":12021271221_0" function="internal" bidi=":12021271221_1">
        <lane id=":12021271221_0_0" index="0" allow="rail rail_electric rail_fast" speed="16.67" length="0.10" shape="933.01,637.77 933.01,637.77"/>
    </edge>
    <edge id=":12021271221_1" function="internal" bidi=":12021271221_0">
        <lane id=":12021271221_1_0" index="0" allow="rail rail_electric rail_fast" speed="16.67" length="0.10" shape="933.01,637.77 933.01,637.77"/>
    </edge>
    <edge id=":12021271222_0" function="internal" bidi=":12021271222_1">
        <lane id=":12021271222_0_0" index="0" allow="rail rail_electric rail_fast" speed="16.67" length="0.27" shape="936.00,633.15 935.74,633.13"/>
    </edge>
    <edge id=":12021271222_1" function="internal" bidi=":12021271222_0">
        <lane id=":12021271222_1_0" index="0" allow="rail rail_electric rail_fast" speed="16.67" length="0.27" shape="935.74,633.13 936.00,633.15"/>
    </edge>
    <edge id=":12056765903_0" function="internal">
        <lane id=":12056765903_0_0" index="0" disallow="tram rail_urban rail rail_electric rail_fast ship container cable_car subway aircraft wheelchair scooter drone" speed="13.89" length="0.31" shape="1229.52,1207.68 1229.42,1207.98"/>
    </edge>
    <edge id=":12056765903_1" function="internal">
        <lane id=":12056765903_1_0" index="0" disallow="tram rail_urban rail rail_electric rail_fast ship container cable_car subway aircraft wheelchair scooter drone" speed="13.89" length="0.22" shape="1226.39,1206.93 1226.46,1206.72"/>
    </edge>
    <edge id=":12682223599_0" function="internal">
        <lane id=":12682223599_0_0" index="0" disallow="tram rail_urban rail rail_electric rail_fast ship container cable_car subway aircraft wheelchair scooter drone" speed="13.89" length="7.74" shape="1380.52,794.65 1380.57,792.34 1380.27,790.75 1380.04,789.16 1380.31,786.90"/>
        <lane id=":12682223599_0_1" index="1" disallow="tram rail_urban rail rail_electric rail_fast ship container cable_car subway aircraft wheelchair scooter drone" speed="13.89" length="7.74" shape="1380.52,794.65 1381.06,792.48 1381.83,791.11 1382.67,789.75 1383.42,787.62"/>
    </edge>
    <edge id=":12749585178_0" function="internal">
        <lane id=":12749585178_0_0" index="0" disallow="tram rail_urban rail rail_electric rail_fast ship container cable_car subway aircraft wheelchair scooter drone" speed="13.89" length="0.30" shape="1255.17,1016.45 1255.45,1016.55"/>
    </edge>
    <edge id=":12951186194_0" function="internal">
        <lane id=":12951186194_0_0" index="0" disallow="tram rail_urban rail rail_electric rail_fast ship container cable_car subway aircraft wheelchair scooter drone" speed="13.89" length="0.10" shape="1217.96,1003.67 1217.96,1003.67"/>
    </edge>
    <edge id=":12951190923_0" function="internal">
        <lane id=":12951190923_0_0" index="0" disallow="tram rail_urban rail rail_electric rail_fast ship container cable_car subway aircraft wheelchair scooter drone" speed="2.78" length="0.31" shape="1172.86,964.95 1172.58,965.08"/>
    </edge>
    <edge id=":12951190923_1" function="internal">
        <lane id=":12951190923_1_0" index="0" disallow="tram rail_urban rail rail_electric rail_fast ship container cable_car subway aircraft wheelchair scooter drone" speed="2.78" length="0.29" shape="1171.27,962.16 1171.53,962.04"/>
    </edge>
    <edge id=":12951191199_0" function="internal">
        <lane id=":12951191199_0_0" index="0" disallow="tram rail_urban rail rail_electric rail_fast ship container cable_car subway aircraft wheelchair scooter drone" speed="8.34" length="0.30" shape="1170.80,965.89 1170.52,966.01"/>
    </edge>
    <edge id=":12951191199_1" function="internal">
        <lane id=":12951191199_1_0" index="0" disallow="tram rail_urban rail rail_electric rail_fast ship container cable_car subway aircraft wheelchair scooter drone" speed="8.34" length="0.30" shape="1169.20,963.09 1169.48,962.97"/>
    </edge>
    <edge id=":12951191354_0" function="internal">
        <lane id=":12951191354_0_0" index="0" disallow="tram rail_urban rail rail_electric rail_fast ship container cable_car subway aircraft wheelchair scooter drone" speed="2.78" length="0.33" shape="1057.48,1022.35 1057.24,1022.58"/>
    </edge>
    <edge id=":12951191354_1" function="internal">
        <lane id=":12951191354_1_0" index="0" disallow="tram rail_urban rail rail_electric rail_fast ship container cable_car subway aircraft wheelchair scooter drone" speed="2.78" length="0.30" shape="1055.05,1020.24 1055.27,1020.04"/>
    </edge>
    <edge id=":12951191435_0" function="internal">
        <lane id=":12951191435_0_0" index="0" disallow="tram rail_urban rail rail_electric rail_fast ship container cable_car subway aircraft wheelchair scooter drone" speed="2.78" length="0.30" shape="1069.09,1015.91 1068.82,1016.05"/>
    </edge>
    <edge id=":12951191435_1" function="internal">
        <lane id=":12951191435_1_0" index="0" disallow="tram rail_urban rail rail_electric rail_fast ship container cable_car subway aircraft wheelchair scooter drone" speed="2.78" length="0.30" shape="1067.37,1013.19 1067.64,1013.06"/>
    </edge>
    <edge id=":12952575643_0" function="internal">
        <lane id=":12952575643_0_0" index="0" disallow="tram rail_urban rail rail_electric rail_fast ship container cable_car subway aircraft wheelchair scooter drone" speed="27.78" length="5.59" shape="952.29,939.89 952.95,938.24 953.52,937.16 954.22,936.14 955.28,934.71"/>
        <lane id=":12952575643_0_1" index="1" disallow="tram rail_urban rail rail_electric rail_fast ship container cable_car subway aircraft wheelchair scooter drone" speed="27.78" length="5.59" shape="955.29,941.00 955.86,939.59 956.35,938.67 956.96,937.81 957.88,936.58"/>
    </edge>
    <edge id=":12952575643_2" function="internal">
        <lane id=":12952575643_2_0" index="0" disallow="tram rail_urban rail rail_electric rail_fast ship container cable_car subway aircraft wheelchair scooter drone" speed="7.71" length="4.00" shape="958.29,942.10 958.73,941.01 959.15,940.30 959.76,939.74 960.74,939.10"/>
    </edge>
    <edge id=":12952575649_0" function="internal">
        <lane id=":12952575649_0_0" index="0" disallow="tram rail_urban rail rail_electric rail_fast ship container cable_car subway aircraft wheelchair scooter drone" speed="27.78" length="8.71" shape="937.57,993.78 937.75,991.12 936.70,989.20 935.65,987.28 935.83,984.62"/>
        <lane id=":12952575649_0_1" index="1" disallow="tram rail_urban rail rail_electric rail_fast ship container cable_car subway aircraft wheelchair scooter drone" speed="27.78" length="8.71" shape="937.57,993.78 938.16,991.45 938.20,989.75 938.24,988.06 938.83,985.72"/>
        <lane id=":12952575649_0_2" index="2" disallow="tram rail_urban rail rail_electric rail_fast ship container cable_car subway aircraft wheelchair scooter drone" speed="27.78" length="8.71" shape="940.57,994.89 941.16,992.55 941.20,990.86 941.24,989.17 941.84,986.83"/>
    </edge>
    <edge id=":12952575717_0" function="internal">
        <lane id=":12952575717_0_0" index="0" disallow="tram rail_urban rail rail_electric rail_fast ship container cable_car subway aircraft wheelchair scooter drone" speed="27.78" length="8.21" shape="985.73,866.94 986.33,864.60 986.37,862.91 986.41,861.22 987.00,858.88"/>
        <lane id=":12952575717_0_1" index="1" disallow="tram rail_urban rail rail_electric rail_fast ship container cable_car subway aircraft wheelchair scooter drone" speed="27.78" length="8.21" shape="988.74,868.05 989.33,865.71 989.37,864.02 989.41,862.32 990.00,859.99"/>
        <lane id=":12952575717_0_2" index="2" disallow="tram rail_urban rail rail_electric rail_fast ship container cable_car subway aircraft wheelchair scooter drone" speed="27.78" length="8.21" shape="988.74,868.05 989.80,865.88 990.87,864.57 991.94,863.26 993.01,861.09"/>
    </edge>
    <edge id=":12952575718_0" function="internal">
        <lane id=":12952575718_0_0" index="0" disallow="tram rail_urban rail rail_electric rail_fast ship container cable_car subway aircraft wheelchair scooter drone" speed="27.78" length="0.33" shape="974.75,895.01 974.78,894.96 974.79,894.93 974.80,894.90 974.82,894.86"/>
        <lane id=":12952575718_0_1" index="1" disallow="tram rail_urban rail rail_electric rail_fast ship container cable_car subway aircraft wheelchair scooter drone" speed="27.78" length="0.33" shape="977.55,896.56 977.62,896.43 977.67,896.34 977.71,896.25 977.77,896.12"/>
    </edge>
    <edge id=":12952575721_0" function="internal">
        <lane id=":12952575721_0_0" index="0" disallow="tram rail_urban rail rail_electric rail_fast ship container cable_car subway aircraft wheelchair scooter drone" speed="20.84" length="0.30" shape="906.81,1077.74 906.92,1077.45"/>
        <lane id=":12952575721_0_1" index="1" disallow="tram rail_urban rail rail_electric rail_fast ship container cable_car subway aircraft wheelchair scooter drone" speed="20.84" length="0.30" shape="909.83,1078.82 909.92,1078.55"/>
    </edge>
    <edge id=":12952575725_0" function="internal">
        <lane id=":12952575725_0_0" index="0" disallow="tram rail_urban rail rail_electric rail_fast ship container cable_car subway aircraft wheelchair scooter drone" speed="27.78" length="0.30" shape="917.77,1047.60 917.87,1047.32"/>
        <lane id=":12952575725_0_1" index="1" disallow="tram rail_urban rail rail_electric rail_fast ship container cable_car subway aircraft wheelchair scooter drone" speed="27.78" length="0.30" shape="920.77,1048.70 920.87,1048.42"/>
    </edge>
    <edge id=":13123464125_0" function="internal" bidi=":13123464125_1">
        <lane id=":13123464125_0_0" index="0" allow="rail rail_electric rail_fast" speed="19.45" length="0.29" shape="1196.00,655.86 1195.72,655.76"/>
    </edge>
    <edge id=":13123464125_1" function="internal" bidi=":13123464125_0">
        <lane id=":13123464125_1_0" index="0" allow="rail rail_electric rail_fast" speed="19.45" length="0.29" shape="1195.72,655.76 1196.00,655.86"/>
    </edge>
    <edge id=":13123464126_0" function="internal" bidi=":13123464126_1">
        <lane id=":13123464126_0_0" index="0" allow="rail rail_electric rail_fast" speed="19.45" length="0.29" shape="1197.78,652.45 1197.50,652.35"/>
    </edge>
    <edge id=":13123464126_1" function="internal" bidi=":13123464126_0">
        <lane id=":13123464126_1_0" index="0" allow="rail rail_electric rail_fast" speed="19.45" length="0.29" shape="1197.50,652.35 1197.78,652.45"/>
    </edge>
    <edge id=":13140629251_0" function="internal">
        <lane id=":13140629251_0_0" index="0" allow="rail rail_electric rail_fast" speed="16.67" length="0.10" shape="1294.42,679.83 1294.42,679.83"/>
    </edge>
    <edge id=":13140629253_0" function="internal">
        <lane id=":13140629253_0_0" index="0" allow="rail rail_electric rail_fast" speed="16.67" length="0.30" shape="1266.12,670.09 1265.84,669.99"/>
    </edge>
    <edge id=":1319138854_0" function="internal">
        <lane id=":1319138854_0_0" index="0" disallow="tram rail_urban rail rail_electric rail_fast ship container cable_car subway aircraft wheelchair scooter drone" speed="8.33" length="0.28" shape="1306.50,961.87 1306.33,962.09"/>
    </edge>
    <edge id=":1319138854_1" function="internal">
        <lane id=":1319138854_1_0" index="0" disallow="tram rail_urban rail rail_electric rail_fast ship container cable_car subway aircraft wheelchair scooter drone" speed="8.33" length="0.31" shape="1303.73,960.23 1303.92,959.97"/>
    </edge>
    <edge id=":13201630600_0" function="internal">
        <lane id=":13201630600_0_0" index="0" disallow="tram rail_urban rail rail_electric rail_fast ship container cable_car subway aircraft wheelchair scooter drone" speed="13.89" length="8.20" shape="992.55,901.45 992.04,903.81 992.06,905.50 992.07,907.20 991.54,909.55"/>
        <lane id=":13201630600_0_1" index="1" disallow="tram rail_urban rail rail_electric rail_fast ship container cable_car subway aircraft wheelchair scooter drone" speed="13.89" length="8.20" shape="989.51,900.45 989.00,902.80 989.02,904.49 989.03,906.18 988.51,908.53"/>
    </edge>
    <edge id=":13201630603_0" function="internal">
        <lane id=":13201630603_0_0" index="0" disallow="tram rail_urban rail rail_electric rail_fast ship container cable_car subway aircraft wheelchair scooter drone" speed="13.89" length="8.38" shape="982.13,936.47 982.28,939.14 982.49,941.01 982.40,942.82 981.63,945.31"/>
        <lane id=":13201630603_0_1" index="1" disallow="tram rail_urban rail rail_electric rail_fast ship container cable_car subway aircraft wheelchair scooter drone" speed="13.89" length="8.38" shape="978.93,936.47 979.09,938.79 979.32,940.41 979.29,941.98 978.66,944.14"/>
    </edge>
    <edge id=":13201630603_2" function="internal">
        <lane id=":13201630603_2_0" index="0" disallow="tram rail_urban rail rail_electric rail_fast ship container cable_car subway aircraft wheelchair scooter drone" speed="6.84" length="5.90" shape="975.01,937.38 975.76,938.66 976.12,940.02 976.10,941.46 975.68,942.97"/>
    </edge>
    <edge id=":13201630608_0" function="internal">
        <lane id=":13201630608_0_0" index="0" disallow="tram rail_urban rail rail_electric rail_fast ship container cable_car subway aircraft wheelchair scooter drone" speed="13.89" length="8.21" shape="937.04,1057.68 936.46,1060.03 936.43,1061.73 936.39,1063.42 935.80,1065.76"/>
        <lane id=":13201630608_0_1" index="1" disallow="tram rail_urban rail rail_electric rail_fast ship container cable_car subway aircraft wheelchair scooter drone" speed="13.89" length="8.21" shape="934.04,1056.60 933.46,1058.93 933.42,1060.63 933.39,1062.32 932.79,1064.65"/>
        <lane id=":13201630608_0_2" index="2" disallow="tram rail_urban rail rail_electric rail_fast ship container cable_car subway aircraft wheelchair scooter drone" speed="13.89" length="8.21" shape="934.04,1056.60 932.99,1058.76 931.92,1060.07 930.86,1061.38 929.79,1063.54"/>
    </edge>
    <edge id=":13201630639_0" function="internal">
        <lane id=":13201630639_0_0" index="0" disallow="tram rail_urban rail rail_electric rail_fast ship container cable_car subway aircraft wheelchair scooter drone" speed="13.89" length="8.20" shape="813.47,1331.36 814.06,1329.01 814.09,1327.31 814.13,1325.62 814.73,1323.28"/>
        <lane id=":13201630639_0_1" index="1" disallow="tram rail_urban rail rail_electric rail_fast ship container cable_car subway aircraft wheelchair scooter drone" speed="13.89" length="8.20" shape="816.48,1332.44 817.06,1330.11 817.10,1328.41 817.13,1326.72 817.73,1324.39"/>
        <lane id=":13201630639_0_2" index="2" disallow="tram rail_urban rail rail_electric rail_fast ship container cable_car subway aircraft wheelchair scooter drone" speed="13.89" length="8.20" shape="816.48,1332.44 817.53,1330.28 818.60,1328.97 819.66,1327.66 820.73,1325.50"/>
    </edge>
    <edge id=":13201630668_0" function="internal">
        <lane id=":13201630668_0_0" index="0" disallow="tram rail_urban rail rail_electric rail_fast ship container cable_car subway aircraft wheelchair scooter drone" speed="13.89" length="8.21" shape="802.61,1424.20 801.99,1426.52 801.92,1428.19 801.92,1429.88 801.52,1432.27"/>
        <lane id=":13201630668_0_1" index="1" disallow="tram rail_urban rail rail_electric rail_fast ship container cable_car subway aircraft wheelchair scooter drone" speed="13.89" length="8.21" shape="799.60,1423.10 798.98,1425.42 798.90,1427.10 798.90,1428.80 798.49,1431.20"/>
        <lane id=":13201630668_0_2" index="2" disallow="tram rail_urban rail rail_electric rail_fast ship container cable_car subway aircraft wheelchair scooter drone" speed="13.89" length="8.21" shape="799.60,1423.10 798.51,1425.25 797.39,1426.56 796.34,1427.90 795.46,1430.12"/>
    </edge>
    <edge id=":1321790320_0" function="internal">
        <lane id=":1321790320_0_0" index="0" disallow="tram rail_urban rail rail_electric rail_fast ship container cable_car subway aircraft wheelchair scooter drone" speed="13.89" length="10.64" shape="1032.33,1267.20 1029.55,1265.81 1027.96,1264.16 1026.41,1262.51 1023.77,1261.14"/>
    </edge>
    <edge id=":1321790320_1" function="internal">
        <lane id=":1321790320_1_0" index="0" disallow="tram rail_urban rail rail_electric rail_fast ship container cable_car subway aircraft wheelchair scooter drone" speed="7.56" length="2.81" shape="1033.29,1264.15 1031.18,1262.75 1031.09,1262.49"/>
    </edge>
    <edge id=":1321790320_2" function="internal">
        <lane id=":1321790320_2_0" index="0" disallow="tram rail_urban rail rail_electric rail_fast ship container cable_car subway aircraft wheelchair scooter drone" speed="3.65" length="1.44" shape="1033.29,1264.15 1032.38,1263.03"/>
    </edge>
    <edge id=":1321790320_6" function="internal">
        <lane id=":1321790320_6_0" index="0" disallow="tram rail_urban rail rail_electric rail_fast ship container cable_car subway aircraft wheelchair scooter drone" speed="7.56" length="10.92" shape="1031.09,1262.49 1030.35,1260.26 1030.80,1256.69 1032.52,1252.03"/>
    </edge>
    <edge id=":1321790320_7" function="internal">
        <lane id=":1321790320_7_0" index="0" disallow="tram rail_urban rail rail_electric rail_fast ship container cable_car subway aircraft wheelchair scooter drone" speed="3.65" length="3.23" shape="1032.38,1263.03 1032.24,1262.14 1032.86,1261.50 1034.25,1261.10"/>
    </edge>
    <edge id=":1321790320_3" function="internal">
        <lane id=":1321790320_3_0" index="0" disallow="tram rail_urban rail rail_electric rail_fast ship container cable_car subway aircraft wheelchair scooter drone" speed="6.53" length="8.28" shape="1025.72,1255.05 1027.92,1255.42 1029.79,1255.05 1031.32,1253.92 1032.52,1252.03"/>
    </edge>
    <edge id=":1321790320_4" function="internal">
        <lane id=":1321790320_4_0" index="0" disallow="tram rail_urban rail rail_electric rail_fast ship container cable_car subway aircraft wheelchair scooter drone" speed="13.89" length="10.61" shape="1025.72,1255.05 1028.48,1256.45 1030.06,1258.11 1031.60,1259.74 1034.25,1261.10"/>
    </edge>
    <edge id=":1321790320_5" function="internal">
        <lane id=":1321790320_5_0" index="0" disallow="tram rail_urban rail rail_electric rail_fast ship container cable_car subway aircraft wheelchair scooter drone" speed="3.65" length="1.44" shape="1024.74,1258.09 1025.64,1259.22"/>
    </edge>
    <edge id=":1321790320_8" function="internal">
        <lane id=":1321790320_8_0" index="0" disallow="tram rail_urban rail rail_electric rail_fast ship container cable_car subway aircraft wheelchair scooter drone" speed="3.65" length="3.23" shape="1025.64,1259.22 1025.78,1260.11 1025.16,1260.75 1023.77,1261.14"/>
    </edge>
    <edge id=":13288038469_0" function="internal">
        <lane id=":13288038469_0_0" index="0" allow="rail rail_electric rail_fast" speed="22.22" length="46.27" shape="1373.54,713.31 1417.27,728.43"/>
    </edge>
    <edge id=":13288038471_0" function="internal" bidi=":13288038471_2">
        <lane id=":13288038471_0_0" index="0" allow="rail rail_electric rail_fast" speed="22.22" length="3.00" shape="1346.87,708.13 1344.03,707.15"/>
    </edge>
    <edge id=":13288038471_1" function="internal">
        <lane id=":13288038471_1_0" index="0" allow="rail rail_electric rail_fast" speed="16.66" length="2.98" shape="1346.87,708.13 1344.06,707.12"/>
    </edge>
    <edge id=":13288038471_2" function="internal" bidi=":13288038471_0">
        <lane id=":13288038471_2_0" index="0" allow="rail rail_electric rail_fast" speed="22.22" length="3.00" shape="1344.03,707.15 1346.87,708.13"/>
    </edge>
    <edge id=":13288038487_0" function="internal">
        <lane id=":13288038487_0_0" index="0" allow="rail rail_electric rail_fast" speed="16.66" length="43.19" shape="1332.72,702.71 1293.11,685.48"/>
    </edge>
    <edge id=":13288038487_1" function="internal" bidi=":13288038487_2">
        <lane id=":13288038487_1_0" index="0" allow="rail rail_electric rail_fast" speed="22.22" length="43.12" shape="1333.86,699.58 1293.11,685.48"/>
    </edge>
    <edge id=":13288038487_2" function="internal" bidi=":13288038487_1">
        <lane id=":13288038487_2_0" index="0" allow="rail rail_electric rail_fast" speed="22.22" length="43.12" shape="1293.11,685.48 1333.86,699.58"/>
    </edge>
    <edge id=":13299756373_0" function="internal">
        <lane id=":13299756373_0_0" index="0" allow="rail rail_electric rail_fast" speed="22.22" length="46.77" shape="1402.38,727.34 1358.19,712.04"/>
    </edge>
    <edge id=":13299756373_1" function="internal">
        <lane id=":13299756373_1_0" index="0" allow="rail rail_electric rail_fast" speed="16.66" length="30.80" shape="1387.85,720.34 1358.19,712.04"/>
    </edge>
    <edge id=":13299756373_2" function="internal">
        <lane id=":13299756373_2_0" index="0" allow="rail rail_electric rail_fast" speed="0.10" length="0.10" shape="1358.19,712.04 1358.19,712.04"/>
    </edge>
    <edge id=":13311170759_0" function="internal" bidi=":13311170759_1">
        <lane id=":13311170759_0_0" index="0" allow="rail rail_electric rail_fast" speed="16.67" length="0.30" shape="1115.15,635.12 1114.85,635.08"/>
    </edge>
    <edge id=":13311170759_1" function="internal" bidi=":13311170759_0">
        <lane id=":13311170759_1_0" index="0" allow="rail rail_electric rail_fast" speed="16.67" length="0.30" shape="1114.85,635.08 1115.15,635.12"/>
    </edge>
    <edge id=":13311170760_0" function="internal" bidi=":13311170760_1">
        <lane id=":13311170760_0_0" index="0" allow="rail rail_electric rail_fast" speed="16.67" length="0.10" shape="1124.99,632.75 1124.99,632.75"/>
    </edge>
    <edge id=":13311170760_1" function="internal" bidi=":13311170760_0">
        <lane id=":13311170760_1_0" index="0" allow="rail rail_electric rail_fast" speed="16.67" length="0.10" shape="1124.99,632.75 1124.99,632.75"/>
    </edge>
    <edge id=":13311170767_0" function="internal">
        <lane id=":13311170767_0_0" index="0" allow="rail rail_electric rail_fast" speed="22.22" length="0.30" shape="1481.47,754.70 1481.19,754.60"/>
    </edge>
    <edge id=":13311170768_0" function="internal">
        <lane id=":13311170768_0_0" index="0" allow="rail rail_electric rail_fast" speed="22.22" length="0.30" shape="1482.44,750.97 1482.72,751.07"/>
    </edge>
    <edge id=":13322969030_0" function="internal">
        <lane id=":13322969030_0_0" index="0" disallow="tram rail_urban rail rail_electric rail_fast ship container cable_car subway aircraft wheelchair scooter drone" speed="5.27" length="5.86" shape="1138.11,1030.33 1136.81,1030.01 1134.90,1029.58 1133.25,1029.05 1132.71,1028.42"/>
    </edge>
    <edge id=":13322969030_1" function="internal">
        <lane id=":13322969030_1_0" index="0" disallow="tram rail_urban rail rail_electric rail_fast ship container cable_car subway aircraft wheelchair scooter drone" speed="13.89" length="5.37" shape="1130.47,1033.30 1132.71,1028.42"/>
    </edge>
    <edge id=":1550535815_0" function="internal">