<?xml version="1.0" encoding="UTF-8"?>

<!-- generated on 2025-11-08 15:32:47 by Eclipse SUMO netedit Version 1.24.0
-->

<routes xmlns:xsi="http://www.w3.org/2001/XMLSchema-instance" xsi:noNamespaceSchemaLocation="http://sumo.dlr.de/xsd/routes_file.xsd">
    <!-- Vehicles, persons and containers (sorted by depart) -->
    <trip id="veh1" depart="0.00" from="E1" to="-E0.59"/>
    <trip id="veh2" depart="0.00" from="E0" to="E00"/>
</routes>
