<?xml version="1.0" encoding="UTF-8"?>

<!-- generated on 2025-12-25 12:42:48 by Eclipse SUMO netedit Version 1.24.0
<neteditConfiguration xmlns:xsi="http://www.w3.org/2001/XMLSchema-instance" xsi:noNamespaceSchemaLocation="http://sumo.dlr.de/xsd/neteditConfiguration.xsd">

    <input>
        <sumocfg-file value="C:\Users\Adam\Desktop\inne\studia\pbad\Traci.sumocfg"/>
        <route-files value="C:\Users\Adam\Desktop\inne\studia\pbad\Traci.rou.xml"/>
        <sumo-net-file value="C:\Users\Adam\Desktop\inne\studia\pbad\Traci.net.xml"/>
    </input>

    <output>
        <output-file value="C:\Users\Adam\Desktop\inne\studia\pbad\Traci.net.xml"/>
    </output>

    <processing>
        <geometry.min-radius.fix.railways value="false"/>
        <geometry.avoid-overlap value="false"/>
        <geometry.max-grade.fix value="false"/>
        <offset.disable-normalization value="true"/>
        <lefthand value="0"/>
    </processing>

    <junctions>
        <no-turnarounds value="true"/>
        <junctions.corner-detail value="5"/>
        <junctions.limit-turn-speed value="5.50"/>
        <rectangular-lane-cut value="0"/>
    </junctions>

    <pedestrian>
        <walkingareas value="0"/>
    </pedestrian>

    <netedit>
        <new-network value="false"/>
        <ignore.additionalelements value="0"/>
        <ignore.routeelements value="0"/>
    </netedit>

</neteditConfiguration>
-->

<net version="1.20" junctionCornerDetail="5" limitTurnSpeed="5.50" avoidOverlap="0" xmlns:xsi="http://www.w3.org/2001/XMLSchema-instance" xsi:noNamespaceSchemaLocation="http://sumo.dlr.de/xsd/net_file.xsd">

    <location netOffset="0.00,0.00" convBoundary="-122.97,-68.52,-29.02,6.34" origBoundary="-10000000000.00,-10000000000.00,10000000000.00,10000000000.00" projParameter="!"/>

    <edge id=":J7_0" function="internal">
        <lane id=":J7_0_0" index="0" speed="7.07" length="10.07" shape="-78.75,-23.19 -79.29,-25.81 -80.55,-27.71 -82.56,-28.90 -85.29,-29.38"/>
    </edge>
    <edge id=":J7_1" function="internal">
        <lane id=":J7_1_0" index="0" speed="13.89" length="15.01" shape="-78.75,-23.19 -79.90,-38.16"/>
    </edge>
    <edge id=":J7_2" function="internal">
        <lane id=":J7_2_0" index="0" speed="7.89" length="14.45" shape="-78.75,-23.19 -78.41,-27.17 -76.85,-30.00 -74.10,-31.68 -70.14,-32.21"/>
    </edge>
    <edge id=":J7_3" function="internal">
        <lane id=":J7_3_0" index="0" speed="6.37" length="9.04" shape="-70.17,-29.01 -72.65,-28.68 -74.37,-27.63 -75.34,-25.86 -75.56,-23.37"/>
    </edge>
    <edge id=":J7_4" function="internal">
        <lane id=":J7_4_0" index="0" speed="13.89" length="15.13" shape="-70.17,-29.01 -85.29,-29.38"/>
    </edge>
    <edge id=":J7_5" function="internal">
        <lane id=":J7_5_0" index="0" speed="8.51" length="4.26" shape="-70.17,-29.01 -74.10,-29.61 -74.34,-29.76"/>
    </edge>
    <edge id=":J7_12" function="internal">
        <lane id=":J7_12_0" index="0" speed="8.51" length="10.64" shape="-74.34,-29.76 -77.03,-31.34 -78.96,-34.19 -79.90,-38.16"/>
    </edge>
    <edge id=":J7_6" function="internal">
        <lane id=":J7_6_0" index="0" speed="7.12" length="10.12" shape="-76.72,-38.47 -76.08,-35.75 -74.77,-33.80 -72.79,-32.62 -70.14,-32.21"/>
    </edge>
    <edge id=":J7_7" function="internal">
        <lane id=":J7_7_0" index="0" speed="13.89" length="15.14" shape="-76.72,-38.47 -75.56,-23.37"/>
    </edge>
    <edge id=":J7_8" function="internal">
        <lane id=":J7_8_0" index="0" speed="7.78" length="14.73" shape="-76.72,-38.47 -76.91,-34.35 -78.40,-31.47 -81.20,-29.81 -85.29,-29.38"/>
    </edge>
    <edge id=":J7_9" function="internal">
        <lane id=":J7_9_0" index="0" speed="6.23" length="9.05" shape="-85.17,-32.58 -82.65,-32.84 -80.94,-33.86 -80.02,-35.63 -79.90,-38.16"/>
    </edge>
    <edge id=":J7_10" function="internal">
        <lane id=":J7_10_0" index="0" speed="13.89" length="15.03" shape="-85.17,-32.58 -70.14,-32.21"/>
    </edge>
    <edge id=":J7_11" function="internal">
        <lane id=":J7_11_0" index="0" speed="8.48" length="4.08" shape="-85.17,-32.58 -81.15,-31.87"/>
    </edge>
    <edge id=":J7_13" function="internal">
        <lane id=":J7_13_0" index="0" speed="8.48" length="10.80" shape="-81.15,-31.87 -78.21,-30.10 -76.34,-27.26 -75.56,-23.37"/>
    </edge>

    <edge id="-E0" from="J1" to="J7" priority="-1">
        <lane id="-E0_0" index="0" speed="13.89" length="37.77" shape="-122.91,-34.06 -85.17,-32.58"/>
    </edge>
    <edge id="-E1" from="J7" to="J2" priority="-1">
        <lane id="-E1_0" index="0" speed="13.89" length="30.35" shape="-79.90,-38.16 -82.83,-68.36"/>
    </edge>
    <edge id="-E6" from="J7" to="J3" priority="-1">
        <lane id="-E6_0" index="0" speed="13.89" length="41.14" shape="-70.14,-32.21 -29.01,-31.84"/>
    </edge>
    <edge id="-E7" from="J7" to="J0" priority="-1">
        <lane id="-E7_0" index="0" speed="13.89" length="29.66" shape="-75.56,-23.37 -73.89,6.25"/>
    </edge>
    <edge id="E0" from="J7" to="J1" priority="-1">
        <lane id="E0_0" index="0" speed="13.89" length="37.77" shape="-85.29,-29.38 -123.03,-30.86"/>
    </edge>
    <edge id="E1" from="J2" to="J7" priority="-1">
        <lane id="E1_0" index="0" speed="13.89" length="30.35" shape="-79.64,-68.67 -76.72,-38.47"/>
    </edge>
    <edge id="E6" from="J3" to="J7" priority="-1" shape="-29.02,-30.24 -49.67,-30.43 -77.57,-30.68">
        <lane id="E6_0" index="0" speed="13.89" length="41.14" shape="-29.03,-28.64 -49.68,-28.83 -70.17,-29.01"/>
    </edge>
    <edge id="E7" from="J0" to="J7" priority="-1" shape="-75.49,6.34 -76.01,-2.82 -77.57,-30.68">
        <lane id="E7_0" index="0" speed="13.89" length="29.66" shape="-77.09,6.43 -77.61,-2.73 -78.75,-23.19"/>
    </edge>

    <junction id="J0" type="dead_end" x="-75.49" y="6.34" incLanes="-E7_0" intLanes="" shape="-75.49,6.34 -78.68,6.52 -72.30,6.16"/>
    <junction id="J1" type="dead_end" x="-122.97" y="-32.46" incLanes="E0_0" intLanes="" shape="-122.97,-32.46 -123.09,-29.26 -122.97,-32.46"/>
    <junction id="J2" type="dead_end" x="-81.23" y="-68.52" incLanes="-E1_0" intLanes="" shape="-81.23,-68.52 -84.42,-68.21 -81.23,-68.52"/>
    <junction id="J3" type="dead_end" x="-29.02" y="-30.24" incLanes="-E6_0" intLanes="" shape="-29.02,-30.24 -28.99,-33.44 -29.02,-30.24"/>
    <junction id="J7" type="priority" x="-77.57" y="-30.68" incLanes="E7_0 E6_0 E1_0 -E0_0" intLanes=":J7_0_0 :J7_1_0 :J7_2_0 :J7_3_0 :J7_4_0 :J7_12_0 :J7_6_0 :J7_7_0 :J7_8_0 :J7_9_0 :J7_10_0 :J7_13_0" shape="-80.35,-23.10 -73.96,-23.46 -73.64,-25.67 -73.13,-26.44 -72.38,-26.99 -71.40,-27.31 -70.18,-27.41 -70.13,-33.81 -72.70,-34.37 -73.64,-35.03 -74.36,-35.97 -74.86,-37.16 -75.12,-38.62 -81.49,-38.00 -81.72,-35.81 -82.20,-35.06 -82.93,-34.53 -83.89,-34.24 -85.11,-34.18 -85.36,-27.78 -82.69,-27.18 -81.73,-26.52 -81.02,-25.62 -80.56,-24.48">
        <request index="0"  response="000000010000" foes="000100010000" cont="0"/>
        <request index="1"  response="111000110000" foes="111100110000" cont="0"/>
        <request index="2"  response="110011110000" foes="110111110000" cont="0"/>
        <request index="3"  response="000000000000" foes="100010000000" cont="0"/>
        <request index="4"  response="000000000000" foes="100110000111" cont="0"/>
        <request index="5"  response="011000000000" foes="111110000110" cont="1"/>
        <request index="6"  response="010000000000" foes="010000000100" cont="0"/>
        <request index="7"  response="110000111000" foes="110000111100" cont="0"/>
        <request index="8"  response="110000110111" foes="110000110111" cont="0"/>
        <request index="9"  response="000000000000" foes="000000100010" cont="0"/>
        <request index="10" response="000000000000" foes="000111100110" cont="0"/>
        <request index="11" response="000000111000" foes="000110111110" cont="1"/>
    </junction>

    <junction id=":J7_12_0" type="internal" x="-74.34" y="-29.76" incLanes=":J7_5_0 -E0_0" intLanes=":J7_1_0 :J7_2_0 :J7_7_0 :J7_8_0 :J7_9_0 :J7_10_0"/>
    <junction id=":J7_13_0" type="internal" x="-81.15" y="-31.87" incLanes=":J7_11_0 E6_0" intLanes=":J7_1_0 :J7_2_0 :J7_3_0 :J7_4_0 :J7_7_0 :J7_8_0"/>

    <connection from="-E0" to="-E1" fromLane="0" toLane="0" via=":J7_9_0" dir="r" state="M"/>
    <connection from="-E0" to="-E6" fromLane="0" toLane="0" via=":J7_10_0" dir="s" state="M"/>
    <connection from="-E0" to="-E7" fromLane="0" toLane="0" via=":J7_11_0" dir="l" state="m"/>
    <connection from="E1" to="-E6" fromLane="0" toLane="0" via=":J7_6_0" dir="r" state="m"/>
    <connection from="E1" to="-E7" fromLane="0" toLane="0" via=":J7_7_0" dir="s" state="m"/>
    <connection from="E1" to="E0" fromLane="0" toLane="0" via=":J7_8_0" dir="l" state="m"/>
    <connection from="E6" to="-E7" fromLane="0" toLane="0" via=":J7_3_0" dir="r" state="M"/>
    <connection from="E6" to="E0" fromLane="0" toLane="0" via=":J7_4_0" dir="s" state="M"/>
    <connection from="E6" to="-E1" fromLane="0" toLane="0" via=":J7_5_0" dir="l" state="m"/>
    <connection from="E7" to="E0" fromLane="0" toLane="0" via=":J7_0_0" dir="r" state="m"/>
    <connection from="E7" to="-E1" fromLane="0" toLane="0" via=":J7_1_0" dir="s" state="m"/>
    <connection from="E7" to="-E6" fromLane="0" toLane="0" via=":J7_2_0" dir="l" state="m"/>

    <connection from=":J7_0" to="E0" fromLane="0" toLane="0" dir="r" state="M"/>
    <connection from=":J7_1" to="-E1" fromLane="0" toLane="0" dir="s" state="M"/>
    <connection from=":J7_2" to="-E6" fromLane="0" toLane="0" dir="l" state="M"/>
    <connection from=":J7_3" to="-E7" fromLane="0" toLane="0" dir="r" state="M"/>
    <connection from=":J7_4" to="E0" fromLane="0" toLane="0" dir="s" state="M"/>
    <connection from=":J7_5" to="-E1" fromLane="0" toLane="0" via=":J7_12_0" dir="l" state="m"/>
    <connection from=":J7_12" to="-E1" fromLane="0" toLane="0" dir="l" state="M"/>
    <connection from=":J7_6" to="-E6" fromLane="0" toLane="0" dir="r" state="M"/>
    <connection from=":J7_7" to="-E7" fromLane="0" toLane="0" dir="s" state="M"/>
    <connection from=":J7_8" to="E0" fromLane="0" toLane="0" dir="l" state="M"/>
    <connection from=":J7_9" to="-E1" fromLane="0" toLane="0" dir="r" state="M"/>
    <connection from=":J7_10" to="-E6" fromLane="0" toLane="0" dir="s" state="M"/>
    <connection from=":J7_11" to="-E7" fromLane="0" toLane="0" via=":J7_13_0" dir="l" state="m"/>
    <connection from=":J7_13" to="-E7" fromLane="0" toLane="0" dir="l" state="M"/>

</net>
