<?xml version="1.0" encoding="UTF-8"?>

<!-- generated on 2025-12-25 12:43:03 by Eclipse SUMO sumo Version 1.24.0
-->

<sumoConfiguration xmlns:xsi="http://www.w3.org/2001/XMLSchema-instance" xsi:noNamespaceSchemaLocation="http://sumo.dlr.de/xsd/sumoConfiguration.xsd">

    <input>
        <net-file value="sim.net.xml"/>
        <route-files value="sim.rou.xml"/>
    </input>

</sumoConfiguration>
