<configuration>
    <input>
        <net-file value="warszawa_small.net.xml"/>
        <route-files value="warszawa_flows.rou.xml"/>
    </input>

    <processing>
        <ignore-route-errors value="true"/>
    </processing>
</configuration>

