<configuration>
    <input>
        <net-file value="warszawa_small.net.xml"/>
        <route-files value="warszawa_flows.rou.xml"/>
    </input>

    <time>
        <begin value="0"/>
        <end value="86400"/>
    </time>

    <processing>
        <ignore-route-errors value="true"/>
    </processing>
</configuration>

