<?xml version="1.0" encoding="UTF-8"?>

<!-- generated on 2026-01-18 03:00:56 by Eclipse SUMO netedit Version 1.24.0
<neteditConfiguration xmlns:xsi="http://www.w3.org/2001/XMLSchema-instance" xsi:noNamespaceSchemaLocation="http://sumo.dlr.de/xsd/neteditConfiguration.xsd">

    <input>
        <sumo-net-file value="D:\OneDrive\OneDrive - Politechnika Warszawska\Pulpit\pbad\networks\warszawa\small\warszawa.net.xml"/>
    </input>

    <output>
        <output-file value="D:\OneDrive\OneDrive - Politechnika Warszawska\Pulpit\pbad\networks\warszawa\small\warszawa.net.xml"/>
    </output>

    <processing>
        <geometry.min-radius.fix.railways value="false"/>
        <geometry.avoid-overlap value="false"/>
        <geometry.max-grade.fix value="false"/>
        <offset.disable-normalization value="true"/>
        <lefthand value="0"/>
    </processing>

    <junctions>
        <no-turnarounds value="true"/>
        <junctions.corner-detail value="5"/>
        <junctions.limit-turn-speed value="5.50"/>
        <rectangular-lane-cut value="0"/>
    </junctions>

    <pedestrian>
        <walkingareas value="0"/>
    </pedestrian>

</neteditConfiguration>
-->

<net version="1.20" junctionCornerDetail="5" limitTurnSpeed="5.50" avoidOverlap="0" xmlns:xsi="http://www.w3.org/2001/XMLSchema-instance" xsi:noNamespaceSchemaLocation="http://sumo.dlr.de/xsd/net_file.xsd">

    <location netOffset="-499711.86,-5785989.86" convBoundary="706.56,535.45,2107.95,991.85" origBoundary="20.995781,52.219600,21.026708,52.246619" projParameter="+proj=utm +zone=34 +ellps=WGS84 +datum=WGS84 +units=m +no_defs"/>

    <type id="highway.living_street" priority="2" numLanes="1" speed="2.78" disallow="tram rail_urban rail rail_electric rail_fast ship container cable_car subway aircraft wheelchair scooter drone" oneway="0"/>
    <type id="highway.residential" priority="3" numLanes="1" speed="13.89" disallow="tram rail_urban rail rail_electric rail_fast ship container cable_car subway aircraft wheelchair scooter drone" oneway="0"/>
    <type id="highway.secondary" priority="11" numLanes="1" speed="27.78" disallow="tram rail_urban rail rail_electric rail_fast ship container cable_car subway aircraft wheelchair scooter drone" oneway="0"/>
    <type id="highway.tertiary" priority="10" numLanes="1" speed="22.22" disallow="tram rail_urban rail rail_electric rail_fast ship container cable_car subway aircraft wheelchair scooter drone" oneway="0"/>
    <type id="highway.unclassified" priority="4" numLanes="1" speed="13.89" disallow="tram rail_urban rail rail_electric rail_fast ship container cable_car subway aircraft wheelchair scooter drone" oneway="0"/>
    <type id="railway.rail" priority="20" numLanes="1" speed="44.44" allow="rail" oneway="1"/>

    <edge id=":12682223599_0" function="internal">
        <lane id=":12682223599_0_0" index="0" disallow="tram rail_urban rail rail_electric rail_fast ship container cable_car subway aircraft wheelchair scooter drone" speed="13.89" length="7.74" shape="1380.52,794.65 1380.57,792.34 1380.27,790.75 1380.04,789.16 1380.31,786.90"/>
        <lane id=":12682223599_0_1" index="1" disallow="tram rail_urban rail rail_electric rail_fast ship container cable_car subway aircraft wheelchair scooter drone" speed="13.89" length="7.74" shape="1380.52,794.65 1381.06,792.48 1381.83,791.11 1382.67,789.75 1383.42,787.62"/>
    </edge>
    <edge id=":13123464125_0" function="internal" bidi=":13123464125_1">
        <lane id=":13123464125_0_0" index="0" allow="rail rail_electric rail_fast" speed="19.45" length="0.29" shape="1196.00,655.86 1195.72,655.76"/>
    </edge>
    <edge id=":13123464125_1" function="internal" bidi=":13123464125_0">
        <lane id=":13123464125_1_0" index="0" allow="rail rail_electric rail_fast" speed="19.45" length="0.29" shape="1195.72,655.76 1196.00,655.86"/>
    </edge>
    <edge id=":13123464126_0" function="internal" bidi=":13123464126_1">
        <lane id=":13123464126_0_0" index="0" allow="rail rail_electric rail_fast" speed="19.45" length="0.29" shape="1197.78,652.45 1197.50,652.35"/>
    </edge>
    <edge id=":13123464126_1" function="internal" bidi=":13123464126_0">
        <lane id=":13123464126_1_0" index="0" allow="rail rail_electric rail_fast" speed="19.45" length="0.29" shape="1197.50,652.35 1197.78,652.45"/>
    </edge>
    <edge id=":13140629251_0" function="internal">
        <lane id=":13140629251_0_0" index="0" allow="rail rail_electric rail_fast" speed="16.67" length="0.10" shape="1294.42,679.83 1294.42,679.83"/>
    </edge>
    <edge id=":13140629253_0" function="internal">
        <lane id=":13140629253_0_0" index="0" allow="rail rail_electric rail_fast" speed="16.67" length="0.30" shape="1266.12,670.09 1265.84,669.99"/>
    </edge>
    <edge id=":13288038469_0" function="internal">
        <lane id=":13288038469_0_0" index="0" allow="rail rail_electric rail_fast" speed="22.22" length="46.27" shape="1373.54,713.31 1417.27,728.43"/>
    </edge>
    <edge id=":13288038471_0" function="internal" bidi=":13288038471_2">
        <lane id=":13288038471_0_0" index="0" allow="rail rail_electric rail_fast" speed="22.22" length="3.00" shape="1346.87,708.13 1344.03,707.15"/>
    </edge>
    <edge id=":13288038471_1" function="internal">
        <lane id=":13288038471_1_0" index="0" allow="rail rail_electric rail_fast" speed="16.66" length="2.98" shape="1346.87,708.13 1344.06,707.12"/>
    </edge>
    <edge id=":13288038471_2" function="internal" bidi=":13288038471_0">
        <lane id=":13288038471_2_0" index="0" allow="rail rail_electric rail_fast" speed="22.22" length="3.00" shape="1344.03,707.15 1346.87,708.13"/>
    </edge>
    <edge id=":13288038487_0" function="internal">
        <lane id=":13288038487_0_0" index="0" allow="rail rail_electric rail_fast" speed="16.66" length="43.19" shape="1332.72,702.71 1293.11,685.48"/>
    </edge>
    <edge id=":13288038487_1" function="internal" bidi=":13288038487_2">
        <lane id=":13288038487_1_0" index="0" allow="rail rail_electric rail_fast" speed="22.22" length="43.12" shape="1333.86,699.58 1293.11,685.48"/>
    </edge>
    <edge id=":13288038487_2" function="internal" bidi=":13288038487_1">
        <lane id=":13288038487_2_0" index="0" allow="rail rail_electric rail_fast" speed="22.22" length="43.12" shape="1293.11,685.48 1333.86,699.58"/>
    </edge>
    <edge id=":13299756373_0" function="internal">
        <lane id=":13299756373_0_0" index="0" allow="rail rail_electric rail_fast" speed="22.22" length="46.77" shape="1402.38,727.34 1358.19,712.04"/>
    </edge>
    <edge id=":13299756373_1" function="internal">
        <lane id=":13299756373_1_0" index="0" allow="rail rail_electric rail_fast" speed="16.66" length="30.80" shape="1387.85,720.34 1358.19,712.04"/>
    </edge>
    <edge id=":13299756373_2" function="internal">
        <lane id=":13299756373_2_0" index="0" allow="rail rail_electric rail_fast" speed="0.10" length="0.10" shape="1358.19,712.04 1358.19,712.04"/>
    </edge>
    <edge id=":13311170759_0" function="internal" bidi=":13311170759_1">
        <lane id=":13311170759_0_0" index="0" allow="rail rail_electric rail_fast" speed="16.67" length="0.30" shape="1115.15,635.12 1114.85,635.08"/>
    </edge>
    <edge id=":13311170759_1" function="internal" bidi=":13311170759_0">
        <lane id=":13311170759_1_0" index="0" allow="rail rail_electric rail_fast" speed="16.67" length="0.30" shape="1114.85,635.08 1115.15,635.12"/>
    </edge>
    <edge id=":13311170760_0" function="internal" bidi=":13311170760_1">
        <lane id=":13311170760_0_0" index="0" allow="rail rail_electric rail_fast" speed="16.67" length="0.10" shape="1124.99,632.75 1124.99,632.75"/>
    </edge>
    <edge id=":13311170760_1" function="internal" bidi=":13311170760_0">
        <lane id=":13311170760_1_0" index="0" allow="rail rail_electric rail_fast" speed="16.67" length="0.10" shape="1124.99,632.75 1124.99,632.75"/>
    </edge>
    <edge id=":13311170767_0" function="internal">
        <lane id=":13311170767_0_0" index="0" allow="rail rail_electric rail_fast" speed="22.22" length="0.30" shape="1481.47,754.70 1481.19,754.60"/>
    </edge>
    <edge id=":13311170768_0" function="internal">
        <lane id=":13311170768_0_0" index="0" allow="rail rail_electric rail_fast" speed="22.22" length="0.30" shape="1482.44,750.97 1482.72,751.07"/>
    </edge>
    <edge id=":248564705_0" function="internal">
        <lane id=":248564705_0_0" index="0" disallow="tram rail_urban rail rail_electric rail_fast ship container cable_car subway aircraft wheelchair scooter drone" speed="3.65" length="4.67" shape="1440.73,602.83 1441.89,601.97 1442.78,601.86 1443.40,602.51 1443.75,603.91"/>
    </edge>
    <edge id=":302711583_0" function="internal">
        <lane id=":302711583_0_0" index="0" disallow="tram rail_urban rail rail_electric rail_fast ship container cable_car subway aircraft wheelchair scooter drone" speed="13.89" length="0.29" shape="1550.62,783.13 1550.38,783.05"/>
        <lane id=":302711583_0_1" index="1" disallow="tram rail_urban rail rail_electric rail_fast ship container cable_car subway aircraft wheelchair scooter drone" speed="13.89" length="0.29" shape="1551.67,780.11 1551.39,780.01"/>
        <lane id=":302711583_0_2" index="2" disallow="tram rail_urban rail rail_electric rail_fast ship container cable_car subway aircraft wheelchair scooter drone" speed="13.89" length="0.29" shape="1552.72,777.09 1552.41,776.98"/>
    </edge>
    <edge id=":32553378_0" function="internal">
        <lane id=":32553378_0_0" index="0" disallow="pedestrian tram rail_urban rail rail_electric rail_fast ship container cable_car subway aircraft wheelchair scooter drone" speed="13.89" length="8.21" shape="1193.15,662.27 1190.78,661.94 1189.10,662.09 1187.42,662.25 1185.05,661.94"/>
        <lane id=":32553378_0_1" index="1" disallow="pedestrian tram rail_urban rail rail_electric rail_fast ship container cable_car subway aircraft wheelchair scooter drone" speed="13.89" length="8.21" shape="1193.93,659.17 1191.55,658.83 1189.86,658.98 1188.18,659.14 1185.79,658.83"/>
        <lane id=":32553378_0_2" index="2" disallow="pedestrian tram rail_urban rail rail_electric rail_fast ship container cable_car subway aircraft wheelchair scooter drone" speed="13.89" length="8.21" shape="1194.70,656.07 1192.31,655.73 1190.62,655.87 1188.93,656.03 1186.53,655.72"/>
        <lane id=":32553378_0_3" index="3" disallow="pedestrian tram rail_urban rail rail_electric rail_fast ship container cable_car subway aircraft wheelchair scooter drone" speed="13.89" length="8.21" shape="1194.70,656.07 1192.43,655.24 1190.99,654.32 1189.56,653.41 1187.28,652.60"/>
    </edge>
    <edge id=":32892165_0" function="internal">
        <lane id=":32892165_0_0" index="0" disallow="tram rail_urban rail rail_electric rail_fast ship container cable_car subway aircraft wheelchair scooter drone" speed="13.89" length="10.60" shape="1430.31,655.65 1429.69,658.96 1429.74,661.37 1429.57,663.69 1428.28,666.70"/>
        <lane id=":32892165_0_1" index="1" disallow="tram rail_urban rail rail_electric rail_fast ship container cable_car subway aircraft wheelchair scooter drone" speed="13.89" length="10.60" shape="1427.26,654.70 1426.71,657.79 1426.82,660.05 1426.72,662.22 1425.55,665.04"/>
        <lane id=":32892165_0_2" index="2" disallow="tram rail_urban rail rail_electric rail_fast ship container cable_car subway aircraft wheelchair scooter drone" speed="13.89" length="10.60" shape="1427.26,654.70 1426.30,657.43 1425.42,659.21 1424.35,660.90 1422.82,663.37"/>
    </edge>
    <edge id=":32892165_3" function="internal">
        <lane id=":32892165_3_0" index="0" disallow="tram rail_urban rail rail_electric rail_fast ship container cable_car subway aircraft wheelchair scooter drone" speed="13.89" length="9.50" shape="1418.75,660.89 1419.02,658.26 1418.42,656.37 1417.81,654.48 1418.09,651.85"/>
        <lane id=":32892165_3_1" index="1" disallow="tram rail_urban rail rail_electric rail_fast ship container cable_car subway aircraft wheelchair scooter drone" speed="13.89" length="9.50" shape="1421.57,662.61 1421.91,659.76 1421.35,657.70 1420.80,655.65 1421.14,652.80"/>
        <lane id=":32892165_3_2" index="2" disallow="tram rail_urban rail rail_electric rail_fast ship container cable_car subway aircraft wheelchair scooter drone" speed="13.89" length="9.50" shape="1421.57,662.61 1424.20,653.75"/>
    </edge>
    <edge id=":746517141_0" function="internal">
        <lane id=":746517141_0_0" index="0" disallow="pedestrian tram rail_urban rail rail_electric rail_fast ship container cable_car subway aircraft wheelchair scooter drone" speed="13.89" length="0.29" shape="1272.72,663.08 1272.95,663.16"/>
        <lane id=":746517141_0_1" index="1" disallow="pedestrian tram rail_urban rail rail_electric rail_fast ship container cable_car subway aircraft wheelchair scooter drone" speed="13.89" length="0.29" shape="1271.66,666.10 1271.94,666.20"/>
        <lane id=":746517141_0_2" index="2" disallow="pedestrian tram rail_urban rail rail_electric rail_fast ship container cable_car subway aircraft wheelchair scooter drone" speed="13.89" length="0.29" shape="1270.61,669.12 1270.93,669.23"/>
    </edge>
    <edge id=":9341508394_0" function="internal">
        <lane id=":9341508394_0_0" index="0" disallow="tram rail_urban rail rail_electric rail_fast ship container cable_car subway aircraft wheelchair scooter drone" speed="2.78" length="2.74" width="3.25" shape="1372.41,871.91 1372.04,872.63 1371.75,873.11 1371.44,873.57 1370.96,874.23"/>
    </edge>
    <edge id=":9341508394_1" function="internal">
        <lane id=":9341508394_1_0" index="0" disallow="tram rail_urban rail rail_electric rail_fast ship container cable_car subway aircraft wheelchair scooter drone" speed="2.78" length="4.01" width="6.00" shape="1368.34,872.30 1368.91,871.25 1369.17,870.40 1369.55,869.68 1370.47,869.05"/>
    </edge>
    <edge id=":9739589056_0" function="internal">
        <lane id=":9739589056_0_0" index="0" disallow="pedestrian tram rail_urban rail rail_electric rail_fast ship container cable_car subway aircraft wheelchair scooter drone" speed="13.89" length="0.28" shape="1209.12,666.28 1208.91,666.22"/>
        <lane id=":9739589056_0_1" index="1" disallow="pedestrian tram rail_urban rail rail_electric rail_fast ship container cable_car subway aircraft wheelchair scooter drone" speed="13.89" length="0.28" shape="1209.96,663.19 1209.68,663.12"/>
        <lane id=":9739589056_0_2" index="2" disallow="pedestrian tram rail_urban rail rail_electric rail_fast ship container cable_car subway aircraft wheelchair scooter drone" speed="13.89" length="0.28" shape="1210.79,660.10 1210.46,660.01"/>
    </edge>
    <edge id=":9869199164_0" function="internal">
        <lane id=":9869199164_0_0" index="0" disallow="tram rail_urban rail rail_electric rail_fast ship container cable_car subway aircraft wheelchair scooter drone" speed="8.34" length="0.27" shape="1377.55,839.75 1377.56,839.49"/>
    </edge>
    <edge id=":9869199176_0" function="internal">
        <lane id=":9869199176_0_0" index="0" disallow="tram rail_urban rail rail_electric rail_fast ship container cable_car subway aircraft wheelchair scooter drone" speed="2.78" length="2.77" shape="1377.09,847.37 1377.32,844.62"/>
    </edge>
    <edge id=":9891756274_0" function="internal">
        <lane id=":9891756274_0_0" index="0" disallow="tram rail_urban rail rail_electric rail_fast ship container cable_car subway aircraft wheelchair scooter drone" speed="8.34" length="0.23" shape="1383.67,840.36 1383.65,840.60"/>
    </edge>
    <edge id=":9893386508_0" function="internal">
        <lane id=":9893386508_0_0" index="0" disallow="tram rail_urban rail rail_electric rail_fast ship container cable_car subway aircraft wheelchair scooter drone" speed="2.78" length="0.10" width="3.25" shape="1365.98,881.01 1365.98,881.01"/>
    </edge>
    <edge id=":9893386508_1" function="internal">
        <lane id=":9893386508_1_0" index="0" disallow="tram rail_urban rail rail_electric rail_fast ship container cable_car subway aircraft wheelchair scooter drone" speed="2.78" length="2.37" width="3.25" shape="1365.98,881.01 1364.60,881.51 1363.71,881.36"/>
    </edge>
    <edge id=":9893386508_4" function="internal">
        <lane id=":9893386508_4_0" index="0" disallow="tram rail_urban rail rail_electric rail_fast ship container cable_car subway aircraft wheelchair scooter drone" speed="2.78" length="2.37" width="3.25" shape="1363.71,881.36 1363.29,880.55 1363.36,879.09"/>
    </edge>
    <edge id=":9893386508_2" function="internal">
        <lane id=":9893386508_2_0" index="0" disallow="tram rail_urban rail rail_electric rail_fast ship container cable_car subway aircraft wheelchair scooter drone" speed="2.78" length="0.10" width="3.25" shape="1363.36,879.09 1363.36,879.09"/>
    </edge>
    <edge id=":9893386508_3" function="internal">
        <lane id=":9893386508_3_0" index="0" disallow="tram rail_urban rail rail_electric rail_fast ship container cable_car subway aircraft wheelchair scooter drone" speed="2.78" length="2.37" width="3.25" shape="1363.36,879.09 1364.73,878.59 1365.63,878.74"/>
    </edge>
    <edge id=":9893386508_5" function="internal">
        <lane id=":9893386508_5_0" index="0" disallow="tram rail_urban rail rail_electric rail_fast ship container cable_car subway aircraft wheelchair scooter drone" speed="2.78" length="2.37" width="3.25" shape="1365.63,878.74 1366.05,879.55 1365.98,881.01"/>
    </edge>
    <edge id=":cluster_11524989688_7180811302_0" function="internal">
        <lane id=":cluster_11524989688_7180811302_0_0" index="0" disallow="tram rail_urban rail rail_electric rail_fast ship container cable_car subway aircraft wheelchair scooter drone" speed="13.89" length="8.96" shape="1388.47,809.14 1387.82,811.70 1387.01,813.35 1386.20,815.01 1385.55,817.56"/>
    </edge>
    <edge id=":cluster_11524989688_7180811302_1" function="internal">
        <lane id=":cluster_11524989688_7180811302_1_0" index="0" disallow="tram rail_urban rail rail_electric rail_fast ship container cable_car subway aircraft wheelchair scooter drone" speed="4.75" length="5.87" shape="1385.28,808.84 1383.47,811.06 1381.81,811.70 1380.77,811.06"/>
    </edge>
    <edge id=":cluster_11524989688_7180811302_4" function="internal">
        <lane id=":cluster_11524989688_7180811302_4_0" index="0" disallow="tram rail_urban rail rail_electric rail_fast ship container cable_car subway aircraft wheelchair scooter drone" speed="4.75" length="3.43" shape="1380.77,811.06 1380.30,810.76 1378.94,808.23"/>
    </edge>
    <edge id=":cluster_11524989688_7180811302_2" function="internal">
        <lane id=":cluster_11524989688_7180811302_2_0" index="0" disallow="tram rail_urban rail rail_electric rail_fast ship container cable_car subway aircraft wheelchair scooter drone" speed="13.89" length="8.25" shape="1378.36,816.46 1378.94,808.23"/>
    </edge>
    <edge id=":cluster_11524989688_7180811302_3" function="internal">
        <lane id=":cluster_11524989688_7180811302_3_0" index="0" disallow="tram rail_urban rail rail_electric rail_fast ship container cable_car subway aircraft wheelchair scooter drone" speed="5.04" length="7.35" shape="1378.36,816.46 1380.57,814.04 1382.51,813.42 1384.17,814.59"/>
    </edge>
    <edge id=":cluster_11524989688_7180811302_5" function="internal">
        <lane id=":cluster_11524989688_7180811302_5_0" index="0" disallow="tram rail_urban rail rail_electric rail_fast ship container cable_car subway aircraft wheelchair scooter drone" speed="5.04" length="3.28" shape="1384.17,814.59 1385.55,817.56"/>
    </edge>
    <edge id=":cluster_254515315_32892163_32892164_614336808_#4more_0" function="internal">
        <lane id=":cluster_254515315_32892163_32892164_614336808_#4more_0_0" index="0" disallow="tram rail_urban rail rail_electric rail_fast ship container cable_car subway aircraft wheelchair scooter drone" speed="6.48" length="9.07" shape="1413.29,737.96 1410.87,737.49 1408.89,737.94 1407.35,739.29 1406.24,741.55"/>
    </edge>
    <edge id=":cluster_254515315_32892163_32892164_614336808_#4more_1" function="internal">
        <lane id=":cluster_254515315_32892163_32892164_614336808_#4more_1_0" index="0" disallow="tram rail_urban rail rail_electric rail_fast ship container cable_car subway aircraft wheelchair scooter drone" speed="13.89" length="27.33" shape="1413.29,737.96 1387.47,728.80"/>
        <lane id=":cluster_254515315_32892163_32892164_614336808_#4more_1_1" index="1" disallow="tram rail_urban rail rail_electric rail_fast ship container cable_car subway aircraft wheelchair scooter drone" speed="13.89" length="27.33" shape="1414.35,734.94 1388.59,725.80"/>
        <lane id=":cluster_254515315_32892163_32892164_614336808_#4more_1_2" index="2" disallow="tram rail_urban rail rail_electric rail_fast ship container cable_car subway aircraft wheelchair scooter drone" speed="13.89" length="27.33" shape="1415.40,731.91 1389.70,722.80"/>
    </edge>
    <edge id=":cluster_254515315_32892163_32892164_614336808_#4more_4" function="internal">
        <lane id=":cluster_254515315_32892163_32892164_614336808_#4more_4_0" index="0" disallow="tram rail_urban rail rail_electric rail_fast ship container cable_car subway aircraft wheelchair scooter drone" speed="12.06" length="17.68" shape="1415.40,731.91 1410.66,727.40 1407.30,719.21 1406.92,716.95"/>
    </edge>
    <edge id=":cluster_254515315_32892163_32892164_614336808_#4more_5" function="internal">
        <lane id=":cluster_254515315_32892163_32892164_614336808_#4more_5_0" index="0" disallow="tram rail_urban rail rail_electric rail_fast ship container cable_car subway aircraft wheelchair scooter drone" speed="6.37" length="15.53" shape="1415.40,731.91 1411.87,727.26 1411.41,723.67 1414.00,721.14 1416.37,720.53"/>
    </edge>
    <edge id=":cluster_254515315_32892163_32892164_614336808_#4more_22" function="internal">
        <lane id=":cluster_254515315_32892163_32892164_614336808_#4more_22_0" index="0" disallow="tram rail_urban rail rail_electric rail_fast ship container cable_car subway aircraft wheelchair scooter drone" speed="12.06" length="15.10" shape="1406.92,716.95 1405.76,709.89 1406.47,701.98"/>
    </edge>
    <edge id=":cluster_254515315_32892163_32892164_614336808_#4more_23" function="internal">
        <lane id=":cluster_254515315_32892163_32892164_614336808_#4more_23_0" index="0" disallow="tram rail_urban rail rail_electric rail_fast ship container cable_car subway aircraft wheelchair scooter drone" speed="6.37" length="3.39" shape="1416.37,720.53 1419.65,719.68"/>
    </edge>
    <edge id=":cluster_254515315_32892163_32892164_614336808_#4more_6" function="internal">
        <lane id=":cluster_254515315_32892163_32892164_614336808_#4more_6_0" index="0" disallow="tram rail_urban rail rail_electric rail_fast ship container cable_car subway aircraft wheelchair scooter drone" speed="7.18" length="10.64" shape="1418.00,704.92 1417.55,708.00 1418.02,710.48 1419.42,712.36 1421.76,713.63"/>
    </edge>
    <edge id=":cluster_254515315_32892163_32892164_614336808_#4more_7" function="internal">
        <lane id=":cluster_254515315_32892163_32892164_614336808_#4more_7_0" index="0" disallow="tram rail_urban rail rail_electric rail_fast ship container cable_car subway aircraft wheelchair scooter drone" speed="13.89" length="38.45" shape="1418.00,704.92 1406.24,741.55"/>
        <lane id=":cluster_254515315_32892163_32892164_614336808_#4more_7_1" index="1" disallow="tram rail_urban rail rail_electric rail_fast ship container cable_car subway aircraft wheelchair scooter drone" speed="13.89" length="38.45" shape="1414.90,704.13 1403.15,740.71"/>
    </edge>
    <edge id=":cluster_254515315_32892163_32892164_614336808_#4more_9" function="internal">
        <lane id=":cluster_254515315_32892163_32892164_614336808_#4more_9_0" index="0" disallow="tram rail_urban rail rail_electric rail_fast ship container cable_car subway aircraft wheelchair scooter drone" speed="11.72" length="16.40" shape="1411.80,703.34 1407.87,713.92 1404.84,718.04"/>
    </edge>
    <edge id=":cluster_254515315_32892163_32892164_614336808_#4more_10" function="internal">
        <lane id=":cluster_254515315_32892163_32892164_614336808_#4more_10_0" index="0" disallow="tram rail_urban rail rail_electric rail_fast ship container cable_car subway aircraft wheelchair scooter drone" speed="4.47" length="4.66" shape="1411.80,703.34 1409.96,705.00 1408.45,705.32 1407.97,704.91"/>
    </edge>
    <edge id=":cluster_254515315_32892163_32892164_614336808_#4more_24" function="internal">
        <lane id=":cluster_254515315_32892163_32892164_614336808_#4more_24_0" index="0" disallow="tram rail_urban rail rail_electric rail_fast ship container cable_car subway aircraft wheelchair scooter drone" speed="11.72" length="17.21" shape="1404.84,718.04 1402.88,720.70 1396.82,723.65 1389.70,722.80"/>
    </edge>
    <edge id=":cluster_254515315_32892163_32892164_614336808_#4more_25" function="internal">
        <lane id=":cluster_254515315_32892163_32892164_614336808_#4more_25_0" index="0" disallow="tram rail_urban rail rail_electric rail_fast ship container cable_car subway aircraft wheelchair scooter drone" speed="4.47" length="3.38" shape="1407.97,704.91 1407.29,704.32 1406.47,701.98"/>
    </edge>
    <edge id=":cluster_254515315_32892163_32892164_614336808_#4more_11" function="internal">
        <lane id=":cluster_254515315_32892163_32892164_614336808_#4more_11_0" index="0" disallow="pedestrian tram rail_urban rail rail_electric rail_fast ship container cable_car subway aircraft wheelchair scooter drone" speed="6.44" length="9.04" shape="1396.38,704.82 1398.80,705.28 1400.76,704.83 1402.29,703.46 1403.36,701.19"/>
    </edge>
    <edge id=":cluster_254515315_32892163_32892164_614336808_#4more_12" function="internal">
        <lane id=":cluster_254515315_32892163_32892164_614336808_#4more_12_0" index="0" disallow="pedestrian tram rail_urban rail rail_electric rail_fast ship container cable_car subway aircraft wheelchair scooter drone" speed="13.89" length="26.93" shape="1396.38,704.82 1421.76,713.63"/>
        <lane id=":cluster_254515315_32892163_32892164_614336808_#4more_12_1" index="1" disallow="pedestrian tram rail_urban rail rail_electric rail_fast ship container cable_car subway aircraft wheelchair scooter drone" speed="13.89" length="26.93" shape="1395.27,707.82 1420.70,716.66"/>
        <lane id=":cluster_254515315_32892163_32892164_614336808_#4more_12_2" index="2" disallow="pedestrian tram rail_urban rail rail_electric rail_fast ship container cable_car subway aircraft wheelchair scooter drone" speed="13.89" length="26.93" shape="1394.15,710.82 1419.65,719.68"/>
    </edge>
    <edge id=":cluster_254515315_32892163_32892164_614336808_#4more_15" function="internal">
        <lane id=":cluster_254515315_32892163_32892164_614336808_#4more_15_0" index="0" disallow="pedestrian tram rail_urban rail rail_electric rail_fast ship container cable_car subway aircraft wheelchair scooter drone" speed="12.02" length="17.70" shape="1394.15,710.82 1398.98,715.36 1402.38,723.54 1402.74,725.73"/>
    </edge>
    <edge id=":cluster_254515315_32892163_32892164_614336808_#4more_16" function="internal">
        <lane id=":cluster_254515315_32892163_32892164_614336808_#4more_16_0" index="0" disallow="pedestrian tram rail_urban rail rail_electric rail_fast ship container cable_car subway aircraft wheelchair scooter drone" speed="6.34" length="15.25" shape="1394.15,710.82 1397.53,715.48 1397.92,719.04 1395.31,721.47 1393.02,722.01"/>
    </edge>
    <edge id=":cluster_254515315_32892163_32892164_614336808_#4more_26" function="internal">
        <lane id=":cluster_254515315_32892163_32892164_614336808_#4more_26_0" index="0" disallow="pedestrian tram rail_urban rail rail_electric rail_fast ship container cable_car subway aircraft wheelchair scooter drone" speed="12.02" length="15.12" shape="1402.74,725.73 1403.92,732.83 1403.15,740.71"/>
    </edge>
    <edge id=":cluster_254515315_32892163_32892164_614336808_#4more_27" function="internal">
        <lane id=":cluster_254515315_32892163_32892164_614336808_#4more_27_0" index="0" disallow="pedestrian tram rail_urban rail rail_electric rail_fast ship container cable_car subway aircraft wheelchair scooter drone" speed="6.34" length="3.41" shape="1393.02,722.01 1389.70,722.80"/>
    </edge>
    <edge id=":cluster_254515315_32892163_32892164_614336808_#4more_17" function="internal">
        <lane id=":cluster_254515315_32892163_32892164_614336808_#4more_17_0" index="0" disallow="tram rail_urban rail rail_electric rail_fast ship container cable_car subway aircraft wheelchair scooter drone" speed="7.69" length="12.54" shape="1393.60,738.12 1393.95,735.14 1393.05,732.59 1390.89,730.48 1387.47,728.80"/>
    </edge>
    <edge id=":cluster_254515315_32892163_32892164_614336808_#4more_18" function="internal">
        <lane id=":cluster_254515315_32892163_32892164_614336808_#4more_18_0" index="0" disallow="tram rail_urban rail rail_electric rail_fast ship container cable_car subway aircraft wheelchair scooter drone" speed="13.89" length="38.23" shape="1393.60,738.12 1403.36,701.19"/>
        <lane id=":cluster_254515315_32892163_32892164_614336808_#4more_18_1" index="1" disallow="tram rail_urban rail rail_electric rail_fast ship container cable_car subway aircraft wheelchair scooter drone" speed="13.89" length="38.23" shape="1396.69,738.96 1406.47,701.98"/>
    </edge>
    <edge id=":cluster_254515315_32892163_32892164_614336808_#4more_20" function="internal">
        <lane id=":cluster_254515315_32892163_32892164_614336808_#4more_20_0" index="0" disallow="tram rail_urban rail rail_electric rail_fast ship container cable_car subway aircraft wheelchair scooter drone" speed="11.96" length="20.00" shape="1396.69,738.96 1400.96,728.52 1406.21,721.82 1406.40,721.73"/>
    </edge>