<?xml version="1.0" encoding="UTF-8"?>
<routes xmlns:xsi="http://www.w3.org/2001/XMLSchema-instance" xsi:noNamespaceSchemaLocation="http://sumo.dlr.de/xsd/routes_file.xsd">
    <vType id="standard_car" accel="2.6" decel="4.5" sigma="0.5" length="5.0" minGap="2.5" maxSpeed="50.0"/>

    <flow id="flow_0h_760061584#0_to_305333774#0" type="standard_car" from="760061584#0" to="305333774#0" begin="0" end="3600" number="17"/>
    <flow id="flow_0h_760061584#0_to_1076201572#2" type="standard_car" from="760061584#0" to="1076201572#2" begin="0" end="3600" number="16"/>
    <flow id="flow_0h_760061584#0_to_45984395#0" type="standard_car" from="760061584#0" to="45984395#0" begin="0" end="3600" number="17"/>
    <flow id="flow_0h_4966679_to_-760061584#2" type="standard_car" from="4966679" to="-760061584#2" begin="0" end="3600" number="17"/>
    <flow id="flow_0h_4966679_to_45984395#0" type="standard_car" from="4966679" to="45984395#0" begin="0" end="3600" number="17"/>
    <flow id="flow_0h_4966679_to_1076201572#2" type="standard_car" from="4966679" to="1076201572#2" begin="0" end="3600" number="16"/>
    <flow id="flow_0h_114183414#0_to_-760061584#2" type="standard_car" from="114183414#0" to="-760061584#2" begin="0" end="3600" number="25"/>
    <flow id="flow_0h_114183414#0_to_305333774#0" type="standard_car" from="114183414#0" to="305333774#0" begin="0" end="3600" number="25"/>
    <flow id="flow_0h_-1076201572#2_to_305333774#0" type="standard_car" from="-1076201572#2" to="305333774#0" begin="0" end="3600" number="4"/>
    <flow id="flow_0h_-1076201572#2_to_-760061584#2" type="standard_car" from="-1076201572#2" to="-760061584#2" begin="0" end="3600" number="3"/>
    <flow id="flow_0h_-1076201572#2_to_45984395#0" type="standard_car" from="-1076201572#2" to="45984395#0" begin="0" end="3600" number="3"/>
    <flow id="flow_1h_760061584#0_to_305333774#0" type="standard_car" from="760061584#0" to="305333774#0" begin="3600" end="7200" number="10"/>
    <flow id="flow_1h_760061584#0_to_1076201572#2" type="standard_car" from="760061584#0" to="1076201572#2" begin="3600" end="7200" number="10"/>
    <flow id="flow_1h_760061584#0_to_45984395#0" type="standard_car" from="760061584#0" to="45984395#0" begin="3600" end="7200" number="10"/>
    <flow id="flow_1h_4966679_to_-760061584#2" type="standard_car" from="4966679" to="-760061584#2" begin="3600" end="7200" number="10"/>
    <flow id="flow_1h_4966679_to_45984395#0" type="standard_car" from="4966679" to="45984395#0" begin="3600" end="7200" number="10"/>
    <flow id="flow_1h_4966679_to_1076201572#2" type="standard_car" from="4966679" to="1076201572#2" begin="3600" end="7200" number="10"/>
    <flow id="flow_1h_114183414#0_to_-760061584#2" type="standard_car" from="114183414#0" to="-760061584#2" begin="3600" end="7200" number="15"/>
    <flow id="flow_1h_114183414#0_to_305333774#0" type="standard_car" from="114183414#0" to="305333774#0" begin="3600" end="7200" number="15"/>
    <flow id="flow_1h_-1076201572#2_to_305333774#0" type="standard_car" from="-1076201572#2" to="305333774#0" begin="3600" end="7200" number="2"/>
    <flow id="flow_1h_-1076201572#2_to_-760061584#2" type="standard_car" from="-1076201572#2" to="-760061584#2" begin="3600" end="7200" number="2"/>
    <flow id="flow_1h_-1076201572#2_to_45984395#0" type="standard_car" from="-1076201572#2" to="45984395#0" begin="3600" end="7200" number="2"/>
    <flow id="flow_2h_760061584#0_to_305333774#0" type="standard_car" from="760061584#0" to="305333774#0" begin="7200" end="10800" number="7"/>
    <flow id="flow_2h_760061584#0_to_1076201572#2" type="standard_car" from="760061584#0" to="1076201572#2" begin="7200" end="10800" number="6"/>
    <flow id="flow_2h_760061584#0_to_45984395#0" type="standard_car" from="760061584#0" to="45984395#0" begin="7200" end="10800" number="7"/>
    <flow id="flow_2h_4966679_to_-760061584#2" type="standard_car" from="4966679" to="-760061584#2" begin="7200" end="10800" number="6"/>
    <flow id="flow_2h_4966679_to_45984395#0" type="standard_car" from="4966679" to="45984395#0" begin="7200" end="10800" number="7"/>
    <flow id="flow_2h_4966679_to_1076201572#2" type="standard_car" from="4966679" to="1076201572#2" begin="7200" end="10800" number="7"/>
    <flow id="flow_2h_114183414#0_to_-760061584#2" type="standard_car" from="114183414#0" to="-760061584#2" begin="7200" end="10800" number="10"/>
    <flow id="flow_2h_114183414#0_to_305333774#0" type="standard_car" from="114183414#0" to="305333774#0" begin="7200" end="10800" number="10"/>
    <flow id="flow_2h_-1076201572#2_to_305333774#0" type="standard_car" from="-1076201572#2" to="305333774#0" begin="7200" end="10800" number="1"/>
    <flow id="flow_2h_-1076201572#2_to_-760061584#2" type="standard_car" from="-1076201572#2" to="-760061584#2" begin="7200" end="10800" number="1"/>
    <flow id="flow_2h_-1076201572#2_to_45984395#0" type="standard_car" from="-1076201572#2" to="45984395#0" begin="7200" end="10800" number="2"/>
    <flow id="flow_3h_760061584#0_to_305333774#0" type="standard_car" from="760061584#0" to="305333774#0" begin="10800" end="14400" number="7"/>
    <flow id="flow_3h_760061584#0_to_1076201572#2" type="standard_car" from="760061584#0" to="1076201572#2" begin="10800" end="14400" number="6"/>
    <flow id="flow_3h_760061584#0_to_45984395#0" type="standard_car" from="760061584#0" to="45984395#0" begin="10800" end="14400" number="7"/>
    <flow id="flow_3h_4966679_to_-760061584#2" type="standard_car" from="4966679" to="-760061584#2" begin="10800" end="14400" number="7"/>
    <flow id="flow_3h_4966679_to_45984395#0" type="standard_car" from="4966679" to="45984395#0" begin="10800" end="14400" number="6"/>
    <flow id="flow_3h_4966679_to_1076201572#2" type="standard_car" from="4966679" to="1076201572#2" begin="10800" end="14400" number="7"/>
    <flow id="flow_3h_114183414#0_to_-760061584#2" type="standard_car" from="114183414#0" to="-760061584#2" begin="10800" end="14400" number="10"/>
    <flow id="flow_3h_114183414#0_to_305333774#0" type="standard_car" from="114183414#0" to="305333774#0" begin="10800" end="14400" number="10"/>
    <flow id="flow_3h_-1076201572#2_to_305333774#0" type="standard_car" from="-1076201572#2" to="305333774#0" begin="10800" end="14400" number="1"/>
    <flow id="flow_3h_-1076201572#2_to_-760061584#2" type="standard_car" from="-1076201572#2" to="-760061584#2" begin="10800" end="14400" number="2"/>
    <flow id="flow_3h_-1076201572#2_to_45984395#0" type="standard_car" from="-1076201572#2" to="45984395#0" begin="10800" end="14400" number="1"/>
    <flow id="flow_4h_760061584#0_to_305333774#0" type="standard_car" from="760061584#0" to="305333774#0" begin="14400" end="18000" number="17"/>
    <flow id="flow_4h_760061584#0_to_1076201572#2" type="standard_car" from="760061584#0" to="1076201572#2" begin="14400" end="18000" number="16"/>
    <flow id="flow_4h_760061584#0_to_45984395#0" type="standard_car" from="760061584#0" to="45984395#0" begin="14400" end="18000" number="17"/>
    <flow id="flow_4h_4966679_to_-760061584#2" type="standard_car" from="4966679" to="-760061584#2" begin="14400" end="18000" number="16"/>
    <flow id="flow_4h_4966679_to_45984395#0" type="standard_car" from="4966679" to="45984395#0" begin="14400" end="18000" number="17"/>
    <flow id="flow_4h_4966679_to_1076201572#2" type="standard_car" from="4966679" to="1076201572#2" begin="14400" end="18000" number="17"/>
    <flow id="flow_4h_114183414#0_to_-760061584#2" type="standard_car" from="114183414#0" to="-760061584#2" begin="14400" end="18000" number="25"/>
    <flow id="flow_4h_114183414#0_to_305333774#0" type="standard_car" from="114183414#0" to="305333774#0" begin="14400" end="18000" number="25"/>
    <flow id="flow_4h_-1076201572#2_to_305333774#0" type="standard_car" from="-1076201572#2" to="305333774#0" begin="14400" end="18000" number="3"/>
    <flow id="flow_4h_-1076201572#2_to_-760061584#2" type="standard_car" from="-1076201572#2" to="-760061584#2" begin="14400" end="18000" number="3"/>
    <flow id="flow_4h_-1076201572#2_to_45984395#0" type="standard_car" from="-1076201572#2" to="45984395#0" begin="14400" end="18000" number="4"/>
    <flow id="flow_5h_760061584#0_to_305333774#0" type="standard_car" from="760061584#0" to="305333774#0" begin="18000" end="21600" number="50"/>
    <flow id="flow_5h_760061584#0_to_1076201572#2" type="standard_car" from="760061584#0" to="1076201572#2" begin="18000" end="21600" number="50"/>
    <flow id="flow_5h_760061584#0_to_45984395#0" type="standard_car" from="760061584#0" to="45984395#0" begin="18000" end="21600" number="50"/>
    <flow id="flow_5h_4966679_to_-760061584#2" type="standard_car" from="4966679" to="-760061584#2" begin="18000" end="21600" number="50"/>
    <flow id="flow_5h_4966679_to_45984395#0" type="standard_car" from="4966679" to="45984395#0" begin="18000" end="21600" number="50"/>
    <flow id="flow_5h_4966679_to_1076201572#2" type="standard_car" from="4966679" to="1076201572#2" begin="18000" end="21600" number="50"/>
    <flow id="flow_5h_114183414#0_to_-760061584#2" type="standard_car" from="114183414#0" to="-760061584#2" begin="18000" end="21600" number="75"/>
    <flow id="flow_5h_114183414#0_to_305333774#0" type="standard_car" from="114183414#0" to="305333774#0" begin="18000" end="21600" number="75"/>
    <flow id="flow_5h_-1076201572#2_to_305333774#0" type="standard_car" from="-1076201572#2" to="305333774#0" begin="18000" end="21600" number="10"/>
    <flow id="flow_5h_-1076201572#2_to_-760061584#2" type="standard_car" from="-1076201572#2" to="-760061584#2" begin="18000" end="21600" number="10"/>
    <flow id="flow_5h_-1076201572#2_to_45984395#0" type="standard_car" from="-1076201572#2" to="45984395#0" begin="18000" end="21600" number="10"/>
    <flow id="flow_6h_760061584#0_to_305333774#0" type="standard_car" from="760061584#0" to="305333774#0" begin="21600" end="25200" number="100"/>
    <flow id="flow_6h_760061584#0_to_1076201572#2" type="standard_car" from="760061584#0" to="1076201572#2" begin="21600" end="25200" number="100"/>
    <flow id="flow_6h_760061584#0_to_45984395#0" type="standard_car" from="760061584#0" to="45984395#0" begin="21600" end="25200" number="100"/>
    <flow id="flow_6h_4966679_to_-760061584#2" type="standard_car" from="4966679" to="-760061584#2" begin="21600" end="25200" number="100"/>
    <flow id="flow_6h_4966679_to_45984395#0" type="standard_car" from="4966679" to="45984395#0" begin="21600" end="25200" number="100"/>
    <flow id="flow_6h_4966679_to_1076201572#2" type="standard_car" from="4966679" to="1076201572#2" begin="21600" end="25200" number="100"/>
    <flow id="flow_6h_114183414#0_to_-760061584#2" type="standard_car" from="114183414#0" to="-760061584#2" begin="21600" end="25200" number="150"/>
    <flow id="flow_6h_114183414#0_to_305333774#0" type="standard_car" from="114183414#0" to="305333774#0" begin="21600" end="25200" number="150"/>
    <flow id="flow_6h_-1076201572#2_to_305333774#0" type="standard_car" from="-1076201572#2" to="305333774#0" begin="21600" end="25200" number="20"/>
    <flow id="flow_6h_-1076201572#2_to_-760061584#2" type="standard_car" from="-1076201572#2" to="-760061584#2" begin="21600" end="25200" number="20"/>
    <flow id="flow_6h_-1076201572#2_to_45984395#0" type="standard_car" from="-1076201572#2" to="45984395#0" begin="21600" end="25200" number="20"/>
    <flow id="flow_7h_760061584#0_to_305333774#0" type="standard_car" from="760061584#0" to="305333774#0" begin="25200" end="28800" number="200"/>
    <flow id="flow_7h_760061584#0_to_1076201572#2" type="standard_car" from="760061584#0" to="1076201572#2" begin="25200" end="28800" number="200"/>
    <flow id="flow_7h_760061584#0_to_45984395#0" type="standard_car" from="760061584#0" to="45984395#0" begin="25200" end="28800" number="200"/>
    <flow id="flow_7h_4966679_to_-760061584#2" type="standard_car" from="4966679" to="-760061584#2" begin="25200" end="28800" number="200"/>
    <flow id="flow_7h_4966679_to_45984395#0" type="standard_car" from="4966679" to="45984395#0" begin="25200" end="28800" number="200"/>
    <flow id="flow_7h_4966679_to_1076201572#2" type="standard_car" from="4966679" to="1076201572#2" begin="25200" end="28800" number="200"/>
    <flow id="flow_7h_114183414#0_to_-760061584#2" type="standard_car" from="114183414#0" to="-760061584#2" begin="25200" end="28800" number="300"/>
    <flow id="flow_7h_114183414#0_to_305333774#0" type="standard_car" from="114183414#0" to="305333774#0" begin="25200" end="28800" number="300"/>
    <flow id="flow_7h_-1076201572#2_to_305333774#0" type="standard_car" from="-1076201572#2" to="305333774#0" begin="25200" end="28800" number="40"/>
    <flow id="flow_7h_-1076201572#2_to_-760061584#2" type="standard_car" from="-1076201572#2" to="-760061584#2" begin="25200" end="28800" number="40"/>
    <flow id="flow_7h_-1076201572#2_to_45984395#0" type="standard_car" from="-1076201572#2" to="45984395#0" begin="25200" end="28800" number="40"/>
    <flow id="flow_8h_760061584#0_to_305333774#0" type="standard_car" from="760061584#0" to="305333774#0" begin="28800" end="32400" number="300"/>
    <flow id="flow_8h_760061584#0_to_1076201572#2" type="standard_car" from="760061584#0" to="1076201572#2" begin="28800" end="32400" number="300"/>
    <flow id="flow_8h_760061584#0_to_45984395#0" type="standard_car" from="760061584#0" to="45984395#0" begin="28800" end="32400" number="300"/>
    <flow id="flow_8h_4966679_to_-760061584#2" type="standard_car" from="4966679" to="-760061584#2" begin="28800" end="32400" number="300"/>
    <flow id="flow_8h_4966679_to_45984395#0" type="standard_car" from="4966679" to="45984395#0" begin="28800" end="32400" number="300"/>
    <flow id="flow_8h_4966679_to_1076201572#2" type="standard_car" from="4966679" to="1076201572#2" begin="28800" end="32400" number="300"/>
    <flow id="flow_8h_114183414#0_to_-760061584#2" type="standard_car" from="114183414#0" to="-760061584#2" begin="28800" end="32400" number="450"/>
    <flow id="flow_8h_114183414#0_to_305333774#0" type="standard_car" from="114183414#0" to="305333774#0" begin="28800" end="32400" number="450"/>
    <flow id="flow_8h_-1076201572#2_to_305333774#0" type="standard_car" from="-1076201572#2" to="305333774#0" begin="28800" end="32400" number="60"/>
    <flow id="flow_8h_-1076201572#2_to_-760061584#2" type="standard_car" from="-1076201572#2" to="-760061584#2" begin="28800" end="32400" number="60"/>
    <flow id="flow_8h_-1076201572#2_to_45984395#0" type="standard_car" from="-1076201572#2" to="45984395#0" begin="28800" end="32400" number="60"/>
    <flow id="flow_9h_760061584#0_to_305333774#0" type="standard_car" from="760061584#0" to="305333774#0" begin="32400" end="36000" number="267"/>
    <flow id="flow_9h_760061584#0_to_1076201572#2" type="standard_car" from="760061584#0" to="1076201572#2" begin="32400" end="36000" number="267"/>
    <flow id="flow_9h_760061584#0_to_45984395#0" type="standard_car" from="760061584#0" to="45984395#0" begin="32400" end="36000" number="266"/>
    <flow id="flow_9h_4966679_to_-760061584#2" type="standard_car" from="4966679" to="-760061584#2" begin="32400" end="36000" number="267"/>
    <flow id="flow_9h_4966679_to_45984395#0" type="standard_car" from="4966679" to="45984395#0" begin="32400" end="36000" number="266"/>
    <flow id="flow_9h_4966679_to_1076201572#2" type="standard_car" from="4966679" to="1076201572#2" begin="32400" end="36000" number="267"/>
    <flow id="flow_9h_114183414#0_to_-760061584#2" type="standard_car" from="114183414#0" to="-760061584#2" begin="32400" end="36000" number="400"/>
    <flow id="flow_9h_114183414#0_to_305333774#0" type="standard_car" from="114183414#0" to="305333774#0" begin="32400" end="36000" number="400"/>
    <flow id="flow_9h_-1076201572#2_to_305333774#0" type="standard_car" from="-1076201572#2" to="305333774#0" begin="32400" end="36000" number="53"/>
    <flow id="flow_9h_-1076201572#2_to_-760061584#2" type="standard_car" from="-1076201572#2" to="-760061584#2" begin="32400" end="36000" number="54"/>
    <flow id="flow_9h_-1076201572#2_to_45984395#0" type="standard_car" from="-1076201572#2" to="45984395#0" begin="32400" end="36000" number="53"/>
    <flow id="flow_10h_760061584#0_to_305333774#0" type="standard_car" from="760061584#0" to="305333774#0" begin="36000" end="39600" number="233"/>
    <flow id="flow_10h_760061584#0_to_1076201572#2" type="standard_car" from="760061584#0" to="1076201572#2" begin="36000" end="39600" number="234"/>
    <flow id="flow_10h_760061584#0_to_45984395#0" type="standard_car" from="760061584#0" to="45984395#0" begin="36000" end="39600" number="233"/>
    <flow id="flow_10h_4966679_to_-760061584#2" type="standard_car" from="4966679" to="-760061584#2" begin="36000" end="39600" number="233"/>
    <flow id="flow_10h_4966679_to_45984395#0" type="standard_car" from="4966679" to="45984395#0" begin="36000" end="39600" number="234"/>
    <flow id="flow_10h_4966679_to_1076201572#2" type="standard_car" from="4966679" to="1076201572#2" begin="36000" end="39600" number="233"/>
    <flow id="flow_10h_114183414#0_to_-760061584#2" type="standard_car" from="114183414#0" to="-760061584#2" begin="36000" end="39600" number="350"/>
    <flow id="flow_10h_114183414#0_to_305333774#0" type="standard_car" from="114183414#0" to="305333774#0" begin="36000" end="39600" number="350"/>
    <flow id="flow_10h_-1076201572#2_to_305333774#0" type="standard_car" from="-1076201572#2" to="305333774#0" begin="36000" end="39600" number="47"/>
    <flow id="flow_10h_-1076201572#2_to_-760061584#2" type="standard_car" from="-1076201572#2" to="-760061584#2" begin="36000" end="39600" number="47"/>
    <flow id="flow_10h_-1076201572#2_to_45984395#0" type="standard_car" from="-1076201572#2" to="45984395#0" begin="36000" end="39600" number="46"/>
    <flow id="flow_11h_760061584#0_to_305333774#0" type="standard_car" from="760061584#0" to="305333774#0" begin="39600" end="43200" number="233"/>
    <flow id="flow_11h_760061584#0_to_1076201572#2" type="standard_car" from="760061584#0" to="1076201572#2" begin="39600" end="43200" number="234"/>
    <flow id="flow_11h_760061584#0_to_45984395#0" type="standard_car" from="760061584#0" to="45984395#0" begin="39600" end="43200" number="233"/>
    <flow id="flow_11h_4966679_to_-760061584#2" type="standard_car" from="4966679" to="-760061584#2" begin="39600" end="43200" number="233"/>
    <flow id="flow_11h_4966679_to_45984395#0" type="standard_car" from="4966679" to="45984395#0" begin="39600" end="43200" number="234"/>
    <flow id="flow_11h_4966679_to_1076201572#2" type="standard_car" from="4966679" to="1076201572#2" begin="39600" end="43200" number="233"/>
    <flow id="flow_11h_114183414#0_to_-760061584#2" type="standard_car" from="114183414#0" to="-760061584#2" begin="39600" end="43200" number="350"/>
    <flow id="flow_11h_114183414#0_to_305333774#0" type="standard_car" from="114183414#0" to="305333774#0" begin="39600" end="43200" number="350"/>
    <flow id="flow_11h_-1076201572#2_to_305333774#0" type="standard_car" from="-1076201572#2" to="305333774#0" begin="39600" end="43200" number="47"/>
    <flow id="flow_11h_-1076201572#2_to_-760061584#2" type="standard_car" from="-1076201572#2" to="-760061584#2" begin="39600" end="43200" number="47"/>
    <flow id="flow_11h_-1076201572#2_to_45984395#0" type="standard_car" from="-1076201572#2" to="45984395#0" begin="39600" end="43200" number="46"/>
    <flow id="flow_12h_760061584#0_to_305333774#0" type="standard_car" from="760061584#0" to="305333774#0" begin="43200" end="46800" number="250"/>
    <flow id="flow_12h_760061584#0_to_1076201572#2" type="standard_car" from="760061584#0" to="1076201572#2" begin="43200" end="46800" number="250"/>
    <flow id="flow_12h_760061584#0_to_45984395#0" type="standard_car" from="760061584#0" to="45984395#0" begin="43200" end="46800" number="250"/>
    <flow id="flow_12h_4966679_to_-760061584#2" type="standard_car" from="4966679" to="-760061584#2" begin="43200" end="46800" number="250"/>
    <flow id="flow_12h_4966679_to_45984395#0" type="standard_car" from="4966679" to="45984395#0" begin="43200" end="46800" number="250"/>
    <flow id="flow_12h_4966679_to_1076201572#2" type="standard_car" from="4966679" to="1076201572#2" begin="43200" end="46800" number="250"/>
    <flow id="flow_12h_114183414#0_to_-760061584#2" type="standard_car" from="114183414#0" to="-760061584#2" begin="43200" end="46800" number="375"/>
    <flow id="flow_12h_114183414#0_to_305333774#0" type="standard_car" from="114183414#0" to="305333774#0" begin="43200" end="46800" number="375"/>
    <flow id="flow_12h_-1076201572#2_to_305333774#0" type="standard_car" from="-1076201572#2" to="305333774#0" begin="43200" end="46800" number="50"/>
    <flow id="flow_12h_-1076201572#2_to_-760061584#2" type="standard_car" from="-1076201572#2" to="-760061584#2" begin="43200" end="46800" number="50"/>
    <flow id="flow_12h_-1076201572#2_to_45984395#0" type="standard_car" from="-1076201572#2" to="45984395#0" begin="43200" end="46800" number="50"/>
    <flow id="flow_13h_760061584#0_to_305333774#0" type="standard_car" from="760061584#0" to="305333774#0" begin="46800" end="50400" number="250"/>
    <flow id="flow_13h_760061584#0_to_1076201572#2" type="standard_car" from="760061584#0" to="1076201572#2" begin="46800" end="50400" number="250"/>
    <flow id="flow_13h_760061584#0_to_45984395#0" type="standard_car" from="760061584#0" to="45984395#0" begin="46800" end="50400" number="250"/>
    <flow id="flow_13h_4966679_to_-760061584#2" type="standard_car" from="4966679" to="-760061584#2" begin="46800" end="50400" number="250"/>
    <flow id="flow_13h_4966679_to_45984395#0" type="standard_car" from="4966679" to="45984395#0" begin="46800" end="50400" number="250"/>
    <flow id="flow_13h_4966679_to_1076201572#2" type="standard_car" from="4966679" to="1076201572#2" begin="46800" end="50400" number="250"/>
    <flow id="flow_13h_114183414#0_to_-760061584#2" type="standard_car" from="114183414#0" to="-760061584#2" begin="46800" end="50400" number="375"/>
    <flow id="flow_13h_114183414#0_to_305333774#0" type="standard_car" from="114183414#0" to="305333774#0" begin="46800" end="50400" number="375"/>
    <flow id="flow_13h_-1076201572#2_to_305333774#0" type="standard_car" from="-1076201572#2" to="305333774#0" begin="46800" end="50400" number="50"/>
    <flow id="flow_13h_-1076201572#2_to_-760061584#2" type="standard_car" from="-1076201572#2" to="-760061584#2" begin="46800" end="50400" number="50"/>
    <flow id="flow_13h_-1076201572#2_to_45984395#0" type="standard_car" from="-1076201572#2" to="45984395#0" begin="46800" end="50400" number="50"/>
    <flow id="flow_14h_760061584#0_to_305333774#0" type="standard_car" from="760061584#0" to="305333774#0" begin="50400" end="54000" number="267"/>
    <flow id="flow_14h_760061584#0_to_1076201572#2" type="standard_car" from="760061584#0" to="1076201572#2" begin="50400" end="54000" number="267"/>
    <flow id="flow_14h_760061584#0_to_45984395#0" type="standard_car" from="760061584#0" to="45984395#0" begin="50400" end="54000" number="266"/>
    <flow id="flow_14h_4966679_to_-760061584#2" type="standard_car" from="4966679" to="-760061584#2" begin="50400" end="54000" number="266"/>
    <flow id="flow_14h_4966679_to_45984395#0" type="standard_car" from="4966679" to="45984395#0" begin="50400" end="54000" number="267"/>
    <flow id="flow_14h_4966679_to_1076201572#2" type="standard_car" from="4966679" to="1076201572#2" begin="50400" end="54000" number="267"/>
    <flow id="flow_14h_114183414#0_to_-760061584#2" type="standard_car" from="114183414#0" to="-760061584#2" begin="50400" end="54000" number="400"/>
    <flow id="flow_14h_114183414#0_to_305333774#0" type="standard_car" from="114183414#0" to="305333774#0" begin="50400" end="54000" number="400"/>
    <flow id="flow_14h_-1076201572#2_to_305333774#0" type="standard_car" from="-1076201572#2" to="305333774#0" begin="50400" end="54000" number="53"/>
    <flow id="flow_14h_-1076201572#2_to_-760061584#2" type="standard_car" from="-1076201572#2" to="-760061584#2" begin="50400" end="54000" number="53"/>
    <flow id="flow_14h_-1076201572#2_to_45984395#0" type="standard_car" from="-1076201572#2" to="45984395#0" begin="50400" end="54000" number="54"/>
    <flow id="flow_15h_760061584#0_to_305333774#0" type="standard_car" from="760061584#0" to="305333774#0" begin="54000" end="57600" number="317"/>
    <flow id="flow_15h_760061584#0_to_1076201572#2" type="standard_car" from="760061584#0" to="1076201572#2" begin="54000" end="57600" number="316"/>
    <flow id="flow_15h_760061584#0_to_45984395#0" type="standard_car" from="760061584#0" to="45984395#0" begin="54000" end="57600" number="317"/>
    <flow id="flow_15h_4966679_to_-760061584#2" type="standard_car" from="4966679" to="-760061584#2" begin="54000" end="57600" number="316"/>
    <flow id="flow_15h_4966679_to_45984395#0" type="standard_car" from="4966679" to="45984395#0" begin="54000" end="57600" number="317"/>
    <flow id="flow_15h_4966679_to_1076201572#2" type="standard_car" from="4966679" to="1076201572#2" begin="54000" end="57600" number="317"/>
    <flow id="flow_15h_114183414#0_to_-760061584#2" type="standard_car" from="114183414#0" to="-760061584#2" begin="54000" end="57600" number="475"/>
    <flow id="flow_15h_114183414#0_to_305333774#0" type="standard_car" from="114183414#0" to="305333774#0" begin="54000" end="57600" number="475"/>
    <flow id="flow_15h_-1076201572#2_to_305333774#0" type="standard_car" from="-1076201572#2" to="305333774#0" begin="54000" end="57600" number="63"/>
    <flow id="flow_15h_-1076201572#2_to_-760061584#2" type="standard_car" from="-1076201572#2" to="-760061584#2" begin="54000" end="57600" number="63"/>
    <flow id="flow_15h_-1076201572#2_to_45984395#0" type="standard_car" from="-1076201572#2" to="45984395#0" begin="54000" end="57600" number="64"/>
    <flow id="flow_16h_760061584#0_to_305333774#0" type="standard_car" from="760061584#0" to="305333774#0" begin="57600" end="61200" number="333"/>
    <flow id="flow_16h_760061584#0_to_1076201572#2" type="standard_car" from="760061584#0" to="1076201572#2" begin="57600" end="61200" number="334"/>
    <flow id="flow_16h_760061584#0_to_45984395#0" type="standard_car" from="760061584#0" to="45984395#0" begin="57600" end="61200" number="333"/>
    <flow id="flow_16h_4966679_to_-760061584#2" type="standard_car" from="4966679" to="-760061584#2" begin="57600" end="61200" number="334"/>
    <flow id="flow_16h_4966679_to_45984395#0" type="standard_car" from="4966679" to="45984395#0" begin="57600" end="61200" number="333"/>
    <flow id="flow_16h_4966679_to_1076201572#2" type="standard_car" from="4966679" to="1076201572#2" begin="57600" end="61200" number="333"/>
    <flow id="flow_16h_114183414#0_to_-760061584#2" type="standard_car" from="114183414#0" to="-760061584#2" begin="57600" end="61200" number="500"/>
    <flow id="flow_16h_114183414#0_to_305333774#0" type="standard_car" from="114183414#0" to="305333774#0" begin="57600" end="61200" number="500"/>
    <flow id="flow_16h_-1076201572#2_to_305333774#0" type="standard_car" from="-1076201572#2" to="305333774#0" begin="57600" end="61200" number="67"/>
    <flow id="flow_16h_-1076201572#2_to_-760061584#2" type="standard_car" from="-1076201572#2" to="-760061584#2" begin="57600" end="61200" number="67"/>
    <flow id="flow_16h_-1076201572#2_to_45984395#0" type="standard_car" from="-1076201572#2" to="45984395#0" begin="57600" end="61200" number="66"/>
    <flow id="flow_17h_760061584#0_to_305333774#0" type="standard_car" from="760061584#0" to="305333774#0" begin="61200" end="64800" number="334"/>
    <flow id="flow_17h_760061584#0_to_1076201572#2" type="standard_car" from="760061584#0" to="1076201572#2" begin="61200" end="64800" number="333"/>
    <flow id="flow_17h_760061584#0_to_45984395#0" type="standard_car" from="760061584#0" to="45984395#0" begin="61200" end="64800" number="333"/>
    <flow id="flow_17h_4966679_to_-760061584#2" type="standard_car" from="4966679" to="-760061584#2" begin="61200" end="64800" number="333"/>
    <flow id="flow_17h_4966679_to_45984395#0" type="standard_car" from="4966679" to="45984395#0" begin="61200" end="64800" number="333"/>
    <flow id="flow_17h_4966679_to_1076201572#2" type="standard_car" from="4966679" to="1076201572#2" begin="61200" end="64800" number="334"/>
    <flow id="flow_17h_114183414#0_to_-760061584#2" type="standard_car" from="114183414#0" to="-760061584#2" begin="61200" end="64800" number="500"/>
    <flow id="flow_17h_114183414#0_to_305333774#0" type="standard_car" from="114183414#0" to="305333774#0" begin="61200" end="64800" number="500"/>
    <flow id="flow_17h_-1076201572#2_to_305333774#0" type="standard_car" from="-1076201572#2" to="305333774#0" begin="61200" end="64800" number="67"/>
    <flow id="flow_17h_-1076201572#2_to_-760061584#2" type="standard_car" from="-1076201572#2" to="-760061584#2" begin="61200" end="64800" number="67"/>
    <flow id="flow_17h_-1076201572#2_to_45984395#0" type="standard_car" from="-1076201572#2" to="45984395#0" begin="61200" end="64800" number="66"/>
    <flow id="flow_18h_760061584#0_to_305333774#0" type="standard_car" from="760061584#0" to="305333774#0" begin="64800" end="68400" number="283"/>
    <flow id="flow_18h_760061584#0_to_1076201572#2" type="standard_car" from="760061584#0" to="1076201572#2" begin="64800" end="68400" number="284"/>
    <flow id="flow_18h_760061584#0_to_45984395#0" type="standard_car" from="760061584#0" to="45984395#0" begin="64800" end="68400" number="283"/>
    <flow id="flow_18h_4966679_to_-760061584#2" type="standard_car" from="4966679" to="-760061584#2" begin="64800" end="68400" number="283"/>
    <flow id="flow_18h_4966679_to_45984395#0" type="standard_car" from="4966679" to="45984395#0" begin="64800" end="68400" number="284"/>
    <flow id="flow_18h_4966679_to_1076201572#2" type="standard_car" from="4966679" to="1076201572#2" begin="64800" end="68400" number="283"/>