<?xml version="1.0" encoding="UTF-8"?>

<!-- generated on 2026-01-18 02:52:02 by Eclipse SUMO netedit Version 1.24.0
<neteditConfiguration xmlns:xsi="http://www.w3.org/2001/XMLSchema-instance" xsi:noNamespaceSchemaLocation="http://sumo.dlr.de/xsd/neteditConfiguration.xsd">

    <input>
        <sumo-net-file value="D:\OneDrive\OneDrive - Politechnika Warszawska\Pulpit\pbad\networks\warszawa\large\warszawa_raw.net.xml"/>
    </input>

    <output>
        <output-file value="D:\OneDrive\OneDrive - Politechnika Warszawska\Pulpit\pbad\networks\warszawa\large\warszawa_raw.net.xml"/>
    </output>

    <processing>
        <geometry.min-radius.fix.railways value="false"/>
        <geometry.avoid-overlap value="false"/>
        <geometry.max-grade.fix value="false"/>
        <offset.disable-normalization value="true"/>
        <lefthand value="0"/>
    </processing>

    <junctions>
        <no-turnarounds value="true"/>
        <junctions.corner-detail value="5"/>
        <junctions.limit-turn-speed value="5.50"/>
        <rectangular-lane-cut value="0"/>
    </junctions>

    <pedestrian>
        <walkingareas value="0"/>
    </pedestrian>

</neteditConfiguration>
-->

<net version="1.20" junctionCornerDetail="5" limitTurnSpeed="5.50" avoidOverlap="0" xmlns:xsi="http://www.w3.org/2001/XMLSchema-instance" xsi:noNamespaceSchemaLocation="http://sumo.dlr.de/xsd/net_file.xsd">

    <location netOffset="-499711.86,-5785989.86" convBoundary="706.56,0.00,2107.95,1544.82" origBoundary="20.995781,52.219600,21.026708,52.246619" projParameter="+proj=utm +zone=34 +ellps=WGS84 +datum=WGS84 +units=m +no_defs"/>

    <type id="highway.living_street" priority="2" numLanes="1" speed="2.78" disallow="tram rail_urban rail rail_electric rail_fast ship container cable_car subway aircraft wheelchair scooter drone" oneway="0"/>
    <type id="highway.residential" priority="3" numLanes="1" speed="13.89" disallow="tram rail_urban rail rail_electric rail_fast ship container cable_car subway aircraft wheelchair scooter drone" oneway="0"/>
    <type id="highway.secondary" priority="11" numLanes="1" speed="27.78" disallow="tram rail_urban rail rail_electric rail_fast ship container cable_car subway aircraft wheelchair scooter drone" oneway="0"/>
    <type id="highway.secondary_link" priority="6" numLanes="1" speed="22.22" disallow="tram rail_urban rail rail_electric rail_fast ship container cable_car subway aircraft wheelchair scooter drone" oneway="0"/>
    <type id="highway.service" priority="1" numLanes="1" speed="5.56" allow="pedestrian delivery bicycle" oneway="0"/>
    <type id="highway.tertiary" priority="10" numLanes="1" speed="22.22" disallow="tram rail_urban rail rail_electric rail_fast ship container cable_car subway aircraft wheelchair scooter drone" oneway="0"/>
    <type id="highway.unclassified" priority="4" numLanes="1" speed="13.89" disallow="tram rail_urban rail rail_electric rail_fast ship container cable_car subway aircraft wheelchair scooter drone" oneway="0"/>
    <type id="railway.rail" priority="20" numLanes="1" speed="44.44" allow="rail" oneway="1"/>

    <edge id=":10137552590_0" function="internal">
        <lane id=":10137552590_0_0" index="0" disallow="tram rail_urban rail rail_electric rail_fast ship container cable_car subway aircraft wheelchair scooter drone" speed="11.11" length="0.30" shape="941.51,1264.53 941.41,1264.81"/>
    </edge>
    <edge id=":10154501788_0" function="internal">
        <lane id=":10154501788_0_0" index="0" disallow="tram rail_urban rail rail_electric rail_fast ship container cable_car subway aircraft wheelchair scooter drone" speed="13.89" length="7.43" shape="1094.91,376.96 1097.01,377.32 1098.50,377.15 1100.02,376.89 1102.17,377.00"/>
        <lane id=":10154501788_0_1" index="1" disallow="tram rail_urban rail rail_electric rail_fast ship container cable_car subway aircraft wheelchair scooter drone" speed="13.89" length="7.43" shape="1094.91,376.96 1096.95,377.82 1098.24,378.73 1099.55,379.55 1101.65,380.15"/>
    </edge>
    <edge id=":10154534689_0" function="internal">
        <lane id=":10154534689_0_0" index="0" allow="pedestrian delivery bicycle" speed="5.01" length="5.03" shape="1286.62,434.78 1286.36,436.14 1286.60,437.25 1287.34,438.10 1288.59,438.70"/>
    </edge>
    <edge id=":10154534689_1" function="internal">
        <lane id=":10154534689_1_0" index="0" allow="pedestrian delivery bicycle" speed="3.65" length="4.67" shape="1286.62,434.78 1285.47,435.66 1284.59,435.77 1283.96,435.13 1283.60,433.74"/>
    </edge>
    <edge id=":10154534689_2" function="internal">
        <lane id=":10154534689_2_0" index="0" allow="pedestrian delivery bicycle" speed="5.35" length="5.24" shape="1279.64,436.31 1280.96,436.38 1282.06,435.98 1282.94,435.10 1283.60,433.74"/>
    </edge>
    <edge id=":10154534689_3" function="internal">
        <lane id=":10154534689_3_0" index="0" disallow="tram rail_urban rail rail_electric rail_fast ship container cable_car subway aircraft wheelchair scooter drone" speed="8.33" length="9.27" shape="1279.64,436.31 1282.33,436.90 1284.16,437.35 1285.97,437.88 1288.59,438.70"/>
    </edge>
    <edge id=":10154587299_0" function="internal">
        <lane id=":10154587299_0_0" index="0" disallow="tram rail_urban rail rail_electric rail_fast ship container cable_car subway aircraft wheelchair scooter drone" speed="13.89" length="8.15" shape="1487.01,291.74 1489.36,292.28 1491.05,292.29 1492.73,292.32 1495.05,292.93"/>
        <lane id=":10154587299_0_1" index="1" disallow="tram rail_urban rail rail_electric rail_fast ship container cable_car subway aircraft wheelchair scooter drone" speed="13.89" length="8.15" shape="1487.01,291.74 1489.17,292.74 1490.48,293.78 1491.78,294.85 1493.92,295.92"/>
    </edge>
    <edge id=":10154587305_0" function="internal">
        <lane id=":10154587305_0_0" index="0" allow="pedestrian delivery bicycle" speed="9.72" length="0.30" shape="1368.54,288.98 1368.44,289.27"/>
    </edge>
    <edge id=":10154587305_1" function="internal">
        <lane id=":10154587305_1_0" index="0" allow="pedestrian delivery bicycle" speed="9.72" length="0.30" shape="1365.40,288.27 1365.50,287.99"/>
    </edge>
    <edge id=":10154587305_2" function="internal">
        <lane id=":10154587305_2_0" index="0" disallow="tram rail_urban rail rail_electric rail_fast ship container cable_car subway aircraft wheelchair scooter drone" speed="3.65" length="2.34" shape="1365.40,288.27 1366.54,287.38 1367.42,287.25"/>
    </edge>
    <edge id=":10154587305_3" function="internal">
        <lane id=":10154587305_3_0" index="0" disallow="tram rail_urban rail rail_electric rail_fast ship container cable_car subway aircraft wheelchair scooter drone" speed="3.65" length="2.34" shape="1367.42,287.25 1368.06,287.88 1368.44,289.27"/>
    </edge>
    <edge id=":10155626690_0" function="internal">
        <lane id=":10155626690_0_0" index="0" disallow="tram rail_urban rail rail_electric rail_fast ship container cable_car subway aircraft wheelchair scooter drone" speed="13.89" length="7.87" shape="1487.59,619.09 1485.31,618.59 1483.66,618.58 1482.03,618.52 1479.81,617.84"/>
        <lane id=":10155626690_0_1" index="1" disallow="tram rail_urban rail rail_electric rail_fast ship container cable_car subway aircraft wheelchair scooter drone" speed="13.89" length="7.87" shape="1487.59,619.09 1485.52,618.13 1484.29,617.11 1483.08,616.03 1481.07,614.90"/>
    </edge>
    <edge id=":10169322605_0" function="internal">
        <lane id=":10169322605_0_0" index="0" disallow="tram rail_urban rail rail_electric rail_fast ship container cable_car subway aircraft wheelchair scooter drone" speed="8.33" length="0.10" shape="916.59,1329.66 916.59,1329.66"/>
    </edge>
    <edge id=":10169336021_0" function="internal">
        <lane id=":10169336021_0_0" index="0" disallow="tram rail_urban rail rail_electric rail_fast ship container cable_car subway aircraft wheelchair scooter drone" speed="13.89" length="8.21" shape="1116.14,1069.12 1116.89,1066.84 1117.05,1065.15 1117.20,1063.46 1117.95,1061.17"/>
    </edge>
    <edge id=":10273301425_0" function="internal">
        <lane id=":10273301425_0_0" index="0" disallow="tram rail_urban rail rail_electric rail_fast ship container cable_car subway aircraft wheelchair scooter drone" speed="13.89" length="0.30" shape="1173.49,1258.81 1173.58,1258.53"/>
    </edge>
    <edge id=":10569436866_0" function="internal">
        <lane id=":10569436866_0_0" index="0" allow="pedestrian delivery bicycle" speed="5.19" length="5.18" shape="1291.91,428.75 1290.57,428.57 1289.46,428.89 1288.58,429.70 1287.92,431.02"/>
    </edge>
    <edge id=":10569436866_1" function="internal">
        <lane id=":10569436866_1_0" index="0" allow="pedestrian delivery bicycle" speed="5.56" length="9.42" shape="1291.91,428.75 1282.88,426.08"/>
    </edge>
    <edge id=":10569436866_2" function="internal">
        <lane id=":10569436866_2_0" index="0" allow="pedestrian delivery bicycle" speed="3.65" length="4.67" shape="1291.91,428.75 1290.99,427.64 1290.84,426.76 1291.45,426.11 1292.83,425.69"/>
    </edge>
    <edge id=":10569436866_3" function="internal">
        <lane id=":10569436866_3_0" index="0" allow="pedestrian delivery bicycle" speed="5.56" length="9.44" shape="1283.78,423.01 1292.83,425.69"/>
    </edge>
    <edge id=":10569436866_4" function="internal">
        <lane id=":10569436866_4_0" index="0" allow="pedestrian delivery bicycle" speed="5.56" length="10.40" shape="1283.78,423.01 1286.39,424.20 1287.96,425.93 1288.47,428.20 1287.92,431.02"/>
    </edge>
    <edge id=":10569436866_5" function="internal">
        <lane id=":10569436866_5_0" index="0" allow="pedestrian delivery bicycle" speed="3.65" length="4.67" shape="1283.78,423.01 1284.71,424.12 1284.87,425.00 1284.26,425.65 1282.88,426.08"/>
    </edge>
    <edge id=":10569436866_6" function="internal">
        <lane id=":10569436866_6_0" index="0" allow="pedestrian delivery bicycle" speed="4.99" length="5.06" shape="1284.90,429.98 1285.16,428.61 1284.91,427.50 1284.15,426.66 1282.88,426.08"/>
    </edge>
    <edge id=":10569436866_7" function="internal">
        <lane id=":10569436866_7_0" index="0" allow="pedestrian delivery bicycle" speed="5.56" length="10.19" shape="1284.90,429.98 1286.18,427.45 1287.93,425.89 1290.14,425.30 1292.83,425.69"/>
    </edge>
    <edge id=":10569436866_8" function="internal">
        <lane id=":10569436866_8_0" index="0" allow="pedestrian delivery bicycle" speed="3.65" length="4.67" shape="1284.90,429.98 1286.05,429.10 1286.93,428.99 1287.56,429.62 1287.92,431.02"/>
    </edge>
    <edge id=":10569436869_0" function="internal">
        <lane id=":10569436869_0_0" index="0" allow="pedestrian delivery bicycle" speed="3.65" length="4.67" shape="1349.21,445.69 1348.28,444.59 1348.13,443.71 1348.74,443.05 1350.11,442.63"/>
    </edge>
    <edge id=":105757842_0" function="internal">
        <lane id=":105757842_0_0" index="0" disallow="tram rail_urban rail rail_electric rail_fast ship container cable_car subway aircraft wheelchair scooter drone" speed="11.11" length="15.06" shape="1053.86,261.67 1039.50,257.12"/>
    </edge>
    <edge id=":105757842_1" function="internal">
        <lane id=":105757842_1_0" index="0" disallow="tram rail_urban rail rail_electric rail_fast ship container cable_car subway aircraft wheelchair scooter drone" speed="7.27" length="11.70" shape="1053.86,261.67 1051.58,260.44 1050.32,258.37 1050.09,255.49 1050.88,251.77"/>
    </edge>
    <edge id=":105757842_2" function="internal">
        <lane id=":105757842_2_0" index="0" disallow="tram rail_urban rail rail_electric rail_fast ship container cable_car subway aircraft wheelchair scooter drone" speed="3.66" length="4.70" shape="1053.86,261.67 1052.82,260.66 1052.57,259.80 1053.11,259.08 1054.44,258.51"/>
    </edge>
    <edge id=":105757842_3" function="internal">
        <lane id=":105757842_3_0" index="0" disallow="tram rail_urban rail rail_electric rail_fast ship container cable_car subway aircraft wheelchair scooter drone" speed="6.61" length="10.62" shape="1043.72,264.96 1044.42,262.06 1043.96,259.78 1042.32,258.14 1039.50,257.12"/>
    </edge>
    <edge id=":105757842_4" function="internal">
        <lane id=":105757842_4_0" index="0" disallow="tram rail_urban rail rail_electric rail_fast ship container cable_car subway aircraft wheelchair scooter drone" speed="11.11" length="15.07" shape="1043.72,264.96 1044.84,261.76 1045.67,258.69 1046.58,255.14 1047.93,250.50"/>
        <lane id=":105757842_4_1" index="1" disallow="tram rail_urban rail rail_electric rail_fast ship container cable_car subway aircraft wheelchair scooter drone" speed="11.11" length="15.07" shape="1043.72,264.96 1045.30,261.95 1047.15,259.31 1049.07,256.20 1050.88,251.77"/>
    </edge>
    <edge id=":105757842_6" function="internal">
        <lane id=":105757842_6_0" index="0" disallow="tram rail_urban rail rail_electric rail_fast ship container cable_car subway aircraft wheelchair scooter drone" speed="8.22" length="13.96" shape="1043.72,264.96 1045.68,261.33 1048.12,259.05 1051.04,258.11 1054.44,258.51"/>
    </edge>
    <edge id=":105757851_0" function="internal">
        <lane id=":105757851_0_0" index="0" disallow="tram rail_urban rail rail_electric rail_fast ship container cable_car subway aircraft wheelchair scooter drone" speed="6.44" length="7.15" shape="943.61,548.15 945.28,548.29 946.79,547.80 948.16,546.69 949.36,544.94"/>
    </edge>
    <edge id=":105757851_1" function="internal">
        <lane id=":105757851_1_0" index="0" disallow="tram rail_urban rail rail_electric rail_fast ship container cable_car subway aircraft wheelchair scooter drone" speed="13.89" length="7.70" shape="943.61,548.15 951.05,550.14"/>
        <lane id=":105757851_1_1" index="1" disallow="tram rail_urban rail rail_electric rail_fast ship container cable_car subway aircraft wheelchair scooter drone" speed="13.89" length="7.70" shape="942.81,551.25 950.24,553.23"/>
        <lane id=":105757851_1_2" index="2" disallow="tram rail_urban rail rail_electric rail_fast ship container cable_car subway aircraft wheelchair scooter drone" speed="13.89" length="7.70" shape="942.00,554.35 949.43,556.33"/>
    </edge>
    <edge id=":105757854_0" function="internal">
        <lane id=":105757854_0_0" index="0" disallow="tram rail_urban rail rail_electric rail_fast ship container cable_car subway aircraft wheelchair scooter drone" speed="6.93" length="9.58" shape="990.17,446.05 987.99,444.66 986.70,442.88 986.30,440.71 986.79,438.17"/>
    </edge>
    <edge id=":105757854_1" function="internal">
        <lane id=":105757854_1_0" index="0" disallow="tram rail_urban rail rail_electric rail_fast ship container cable_car subway aircraft wheelchair scooter drone" speed="6.29" length="9.04" shape="979.68,441.20 982.09,441.93 984.08,441.66 985.64,440.41 986.79,438.17"/>
    </edge>
    <edge id=":105757854_2" function="internal">
        <lane id=":105757854_2_0" index="0" disallow="tram rail_urban rail rail_electric rail_fast ship container cable_car subway aircraft wheelchair scooter drone" speed="8.33" length="11.56" shape="983.06,449.11 986.79,438.17"/>
    </edge>
    <edge id=":105757858_0" function="internal">
        <lane id=":105757858_0_0" index="0" disallow="tram rail_urban rail rail_electric rail_fast ship container cable_car subway aircraft wheelchair scooter drone" speed="7.20" length="10.36" shape="1082.46,143.38 1082.40,145.70 1083.33,147.71 1085.28,149.39 1088.23,150.75"/>
    </edge>
    <edge id=":105757858_1" function="internal">
        <lane id=":105757858_1_0" index="0" disallow="tram rail_urban rail rail_electric rail_fast ship container cable_car subway aircraft wheelchair scooter drone" speed="11.11" length="13.66" shape="1075.05,147.24 1078.17,148.26 1080.97,148.85 1084.11,149.52 1088.23,150.75"/>
        <lane id=":105757858_1_1" index="1" disallow="tram rail_urban rail rail_electric rail_fast ship container cable_car subway aircraft wheelchair scooter drone" speed="11.11" length="13.66" shape="1075.05,147.24 1077.98,148.72 1080.38,150.34 1083.11,152.03 1087.04,153.72"/>
    </edge>
    <edge id=":105757858_3" function="internal">
        <lane id=":105757858_3_0" index="0" disallow="tram rail_urban rail rail_electric rail_fast ship container cable_car subway aircraft wheelchair scooter drone" speed="7.75" length="9.17" shape="1077.77,156.14 1079.39,152.76 1081.67,150.73 1083.98,150.20"/>
        <lane id=":105757858_3_1" index="1" disallow="tram rail_urban rail rail_electric rail_fast ship container cable_car subway aircraft wheelchair scooter drone" speed="6.10" length="7.96" shape="1080.88,156.91 1081.84,154.91 1083.18,153.71 1084.92,153.32 1087.04,153.72"/>
    </edge>
    <edge id=":105757858_5" function="internal">
        <lane id=":105757858_5_0" index="0" disallow="tram rail_urban rail rail_electric rail_fast ship container cable_car subway aircraft wheelchair scooter drone" speed="7.75" length="4.33" shape="1083.98,150.20 1084.62,150.06 1088.23,150.75"/>
    </edge>
    <edge id=":105757866_0" function="internal">
        <lane id=":105757866_0_0" index="0" disallow="tram rail_urban rail rail_electric rail_fast ship container cable_car subway aircraft wheelchair scooter drone" speed="6.50" length="9.03" shape="766.47,360.68 765.99,363.11 766.41,365.11 767.72,366.67 769.92,367.80"/>
    </edge>
    <edge id=":105757866_1" function="internal">
        <lane id=":105757866_1_0" index="0" disallow="tram rail_urban rail rail_electric rail_fast ship container cable_car subway aircraft wheelchair scooter drone" speed="8.33" length="11.19" shape="759.34,364.17 769.92,367.80"/>
    </edge>
    <edge id=":105757883_0" function="internal">
        <lane id=":105757883_0_0" index="0" disallow="tram rail_urban rail rail_electric rail_fast ship container cable_car subway aircraft wheelchair scooter drone" speed="6.55" length="8.96" shape="1023.33,329.04 1023.77,326.66 1023.34,324.68 1022.04,323.11 1019.86,321.93"/>
    </edge>
    <edge id=":105757883_1" function="internal">
        <lane id=":105757883_1_0" index="0" disallow="tram rail_urban rail rail_electric rail_fast ship container cable_car subway aircraft wheelchair scooter drone" speed="11.11" length="11.03" shape="1023.33,329.04 1026.76,318.56"/>
    </edge>
    <edge id=":105757890_0" function="internal">
        <lane id=":105757890_0_0" index="0" disallow="tram rail_urban rail rail_electric rail_fast ship container cable_car subway aircraft wheelchair scooter drone" speed="8.33" length="11.06" shape="845.29,393.72 855.74,397.35"/>
    </edge>
    <edge id=":105757890_1" function="internal">
        <lane id=":105757890_1_0" index="0" disallow="tram rail_urban rail rail_electric rail_fast ship container cable_car subway aircraft wheelchair scooter drone" speed="6.53" length="8.97" shape="845.29,393.72 847.46,394.84 848.76,396.39 849.20,398.38 848.78,400.81"/>
    </edge>
    <edge id=":105757892_0" function="internal">
        <lane id=":105757892_0_0" index="0" disallow="tram rail_urban rail rail_electric rail_fast ship container cable_car subway aircraft wheelchair scooter drone" speed="11.11" length="7.93" shape="1012.81,360.15 1015.33,352.63"/>
    </edge>
    <edge id=":105757892_1" function="internal">
        <lane id=":105757892_1_0" index="0" disallow="tram rail_urban rail rail_electric rail_fast ship container cable_car subway aircraft wheelchair scooter drone" speed="7.89" length="7.44" shape="1012.81,360.15 1013.52,358.84 1014.73,357.70 1016.44,356.74 1018.64,355.95"/>
    </edge>
    <edge id=":10652703437_0" function="internal">
        <lane id=":10652703437_0_0" index="0" disallow="pedestrian tram rail_urban rail rail_electric rail_fast ship container cable_car subway aircraft wheelchair scooter drone" speed="13.89" length="6.96" shape="1142.77,509.52 1142.38,511.53 1142.48,512.97 1142.58,514.42 1142.19,516.42"/>
        <lane id=":10652703437_0_1" index="1" disallow="pedestrian tram rail_urban rail rail_electric rail_fast ship container cable_car subway aircraft wheelchair scooter drone" speed="13.89" length="6.96" shape="1139.73,508.53 1139.34,510.53 1139.44,511.97 1139.54,513.41 1139.15,515.41"/>
        <lane id=":10652703437_0_2" index="2" disallow="pedestrian tram rail_urban rail rail_electric rail_fast ship container cable_car subway aircraft wheelchair scooter drone" speed="13.89" length="6.96" shape="1136.69,507.54 1136.30,509.53 1136.40,510.97 1136.51,512.41 1136.11,514.40"/>
        <lane id=":10652703437_0_3" index="3" disallow="pedestrian tram rail_urban rail rail_electric rail_fast ship container cable_car subway aircraft wheelchair scooter drone" speed="13.89" length="6.96" shape="1136.69,507.54 1135.83,509.37 1134.89,510.46 1133.94,511.55 1133.08,513.39"/>
    </edge>
    <edge id=":10657333174_0" function="internal">
        <lane id=":10657333174_0_0" index="0" disallow="tram rail_urban rail rail_electric rail_fast ship container cable_car subway aircraft wheelchair scooter drone" speed="13.89" length="2.98" shape="1109.95,718.81 1112.76,719.80"/>
    </edge>
    <edge id=":10677094040_0" function="internal">
        <lane id=":10677094040_0_0" index="0" allow="pedestrian delivery bicycle" speed="5.01" length="5.03" shape="1160.67,172.50 1160.37,173.86 1160.58,174.97 1161.30,175.84 1162.53,176.48"/>
    </edge>
    <edge id=":10677094040_1" function="internal">
        <lane id=":10677094040_1_0" index="0" allow="pedestrian delivery bicycle" speed="3.65" length="4.67" shape="1160.67,172.50 1159.50,173.34 1158.61,173.44 1158.00,172.78 1157.67,171.37"/>
    </edge>
    <edge id=":10677094040_2" function="internal">
        <lane id=":10677094040_2_0" index="0" allow="pedestrian delivery bicycle" speed="5.13" length="5.11" shape="1153.64,173.40 1154.98,173.65 1156.10,173.39 1156.99,172.64 1157.67,171.37"/>
    </edge>
    <edge id=":10677094040_3" function="internal">
        <lane id=":10677094040_3_0" index="0" disallow="tram rail_urban rail rail_electric rail_fast ship container cable_car subway aircraft wheelchair scooter drone" speed="13.89" length="9.40" shape="1153.64,173.40 1162.53,176.48"/>
        <lane id=":10677094040_3_1" index="1" disallow="tram rail_urban rail rail_electric rail_fast ship container cable_car subway aircraft wheelchair scooter drone" speed="13.89" length="9.40" shape="1152.60,176.42 1161.48,179.50"/>
    </edge>
    <edge id=":10677094044_0" function="internal">
        <lane id=":10677094044_0_0" index="0" allow="pedestrian delivery bicycle" speed="3.65" length="4.67" shape="1179.79,111.23 1180.95,110.38 1181.84,110.28 1182.45,110.93 1182.79,112.33"/>
    </edge>
    <edge id=":10827888329_0" function="internal">
        <lane id=":10827888329_0_0" index="0" allow="pedestrian delivery bicycle" speed="5.56" length="6.21" shape="939.50,229.49 937.42,235.33"/>
    </edge>
    <edge id=":10827888329_1" function="internal">
        <lane id=":10827888329_1_0" index="0" allow="pedestrian delivery bicycle" speed="5.56" length="7.77" shape="939.50,229.49 938.68,230.64 937.24,231.16 935.19,231.04 932.52,230.28"/>
    </edge>
    <edge id=":10827888329_2" function="internal">
        <lane id=":10827888329_2_0" index="0" allow="pedestrian delivery bicycle" speed="3.65" length="4.67" shape="939.50,229.49 938.35,230.35 937.46,230.46 936.84,229.81 936.49,228.41"/>
    </edge>
    <edge id=":10827888329_3" function="internal">
        <lane id=":10827888329_3_0" index="0" allow="pedestrian delivery bicycle" speed="5.05" length="5.01" shape="934.40,234.26 934.68,232.91 934.45,231.81 933.74,230.93 932.52,230.28"/>
    </edge>
    <edge id=":10827888329_4" function="internal">
        <lane id=":10827888329_4_0" index="0" allow="pedestrian delivery bicycle" speed="5.56" length="6.20" shape="934.40,234.26 936.49,228.41"/>
    </edge>
    <edge id=":10827888329_5" function="internal">
        <lane id=":10827888329_5_0" index="0" allow="pedestrian delivery bicycle" speed="3.65" length="4.67" shape="934.40,234.26 935.56,233.40 936.45,233.29 937.07,233.94 937.42,235.33"/>
    </edge>
    <edge id=":10846864001_0" function="internal">
        <lane id=":10846864001_0_0" index="0" disallow="tram rail_urban rail rail_electric rail_fast ship container cable_car subway aircraft wheelchair scooter drone" speed="8.33" length="0.30" shape="1407.28,1209.34 1407.00,1209.22"/>
    </edge>
    <edge id=":11047242974_0" function="internal">
        <lane id=":11047242974_0_0" index="0" allow="pedestrian delivery bicycle" speed="3.65" length="4.67" shape="1346.61,441.60 1347.54,442.70 1347.69,443.58 1347.08,444.24 1345.71,444.66"/>
    </edge>
    <edge id=":11047242975_0" function="internal">
        <lane id=":11047242975_0_0" index="0" allow="pedestrian delivery bicycle" speed="5.09" length="5.06" shape="1380.63,464.66 1380.41,466.05 1380.68,467.17 1381.42,468.03 1382.64,468.63"/>
    </edge>
    <edge id=":11047242975_1" function="internal">
        <lane id=":11047242975_1_0" index="0" allow="pedestrian delivery bicycle" speed="3.65" length="4.67" shape="1380.63,464.66 1379.52,465.58 1378.64,465.73 1377.99,465.11 1377.57,463.73"/>
    </edge>
    <edge id=":11047242975_2" function="internal">
        <lane id=":11047242975_2_0" index="0" allow="pedestrian delivery bicycle" speed="5.02" length="5.02" shape="1373.69,465.78 1375.05,466.00 1376.15,465.74 1376.99,464.98 1377.57,463.73"/>
    </edge>
    <edge id=":11047242975_3" function="internal">
        <lane id=":11047242975_3_0" index="0" disallow="tram rail_urban rail rail_electric rail_fast ship container cable_car subway aircraft wheelchair scooter drone" speed="8.33" length="9.40" shape="1373.69,465.78 1382.64,468.63"/>
    </edge>
    <edge id=":11047242977_0" function="internal">
        <lane id=":11047242977_0_0" index="0" allow="pedestrian delivery bicycle" speed="5.05" length="5.02" shape="1386.28,456.68 1384.92,456.47 1383.83,456.75 1382.99,457.52 1382.41,458.77"/>
    </edge>
    <edge id=":11047242977_1" function="internal">
        <lane id=":11047242977_1_0" index="0" allow="pedestrian delivery bicycle" speed="5.56" length="9.41" shape="1386.28,456.68 1377.26,453.99"/>
    </edge>
    <edge id=":11047242977_2" function="internal">
        <lane id=":11047242977_2_0" index="0" allow="pedestrian delivery bicycle" speed="3.65" length="4.67" shape="1386.28,456.68 1385.36,455.56 1385.21,454.68 1385.82,454.03 1387.20,453.61"/>
    </edge>
    <edge id=":11047242977_3" function="internal">
        <lane id=":11047242977_3_0" index="0" allow="pedestrian delivery bicycle" speed="5.56" length="9.42" shape="1378.17,450.92 1387.20,453.61"/>
    </edge>
    <edge id=":11047242977_4" function="internal">
        <lane id=":11047242977_4_0" index="0" allow="pedestrian delivery bicycle" speed="5.56" length="10.19" shape="1378.17,450.92 1380.71,452.08 1382.26,453.78 1382.83,456.01 1382.41,458.77"/>
    </edge>
    <edge id=":11047242977_5" function="internal">
        <lane id=":11047242977_5_0" index="0" allow="pedestrian delivery bicycle" speed="3.65" length="4.67" shape="1378.17,450.92 1379.09,452.03 1379.25,452.91 1378.64,453.56 1377.26,453.99"/>
    </edge>
    <edge id=":11047242977_6" function="internal">
        <lane id=":11047242977_6_0" index="0" allow="pedestrian delivery bicycle" speed="5.03" length="5.01" shape="1379.34,457.84 1379.55,456.49 1379.27,455.39 1378.51,454.56 1377.26,453.99"/>
    </edge>
    <edge id=":11047242977_7" function="internal">
        <lane id=":11047242977_7_0" index="0" allow="pedestrian delivery bicycle" speed="5.56" length="10.17" shape="1379.34,457.84 1380.52,455.31 1382.22,453.76 1384.45,453.20 1387.20,453.61"/>
    </edge>
    <edge id=":11047242977_8" function="internal">
        <lane id=":11047242977_8_0" index="0" allow="pedestrian delivery bicycle" speed="3.65" length="4.67" shape="1379.34,457.84 1380.46,456.93 1381.34,456.78 1381.99,457.39 1382.41,458.77"/>
    </edge>
    <edge id=":11517160750_0" function="internal">
        <lane id=":11517160750_0_0" index="0" disallow="tram rail_urban rail rail_electric rail_fast ship container cable_car subway aircraft wheelchair scooter drone" speed="13.89" length="8.15" shape="1153.43,469.16 1152.95,471.46 1153.01,473.11 1153.10,474.77 1152.71,477.10"/>
        <lane id=":11517160750_0_1" index="1" disallow="tram rail_urban rail rail_electric rail_fast ship container cable_car subway aircraft wheelchair scooter drone" speed="13.89" length="8.15" shape="1150.39,468.17 1149.90,470.51 1149.95,472.19 1150.03,473.88 1149.63,476.24"/>
        <lane id=":11517160750_0_2" index="2" disallow="tram rail_urban rail rail_electric rail_fast ship container cable_car subway aircraft wheelchair scooter drone" speed="13.89" length="8.15" shape="1147.35,467.19 1146.84,469.56 1146.88,471.26 1146.96,472.98 1146.55,475.38"/>
    </edge>
    <edge id=":12021271221_0" function="internal" bidi=":12021271221_1">
        <lane id=":12021271221_0_0" index="0" allow="rail rail_electric rail_fast" speed="16.67" length="0.10" shape="933.01,637.77 933.01,637.77"/>
    </edge>
    <edge id=":12021271221_1" function="internal" bidi=":12021271221_0">
        <lane id=":12021271221_1_0" index="0" allow="rail rail_electric rail_fast" speed="16.67" length="0.10" shape="933.01,637.77 933.01,637.77"/>
    </edge>
    <edge id=":12021271222_0" function="internal" bidi=":12021271222_1">
        <lane id=":12021271222_0_0" index="0" allow="rail rail_electric rail_fast" speed="16.67" length="0.27" shape="936.00,633.15 935.74,633.13"/>
    </edge>
    <edge id=":12021271222_1" function="internal" bidi=":12021271222_0">
        <lane id=":12021271222_1_0" index="0" allow="rail rail_electric rail_fast" speed="16.67" length="0.27" shape="935.74,633.13 936.00,633.15"/>
    </edge>
    <edge id=":12021271284_0" function="internal">