<configuration>
    <input>
        <net-file value="szczecin_small.net.xml"/>
        
        <route-files value="traffic_1.0.rou.xml"/>
    </input>

    <time>
        <begin value="0"/>
        <end value="86400"/>
    </time>
    
    <report>
        <log value="simulation.log"/>
        <duration-log.statistics value="true"/>
        <no-step-log value="true"/>
    </report>
</configuration>