<?xml version="1.0" encoding="UTF-8"?>

<!-- generated on 2025-12-30 21:11:12 by Eclipse SUMO netedit Version 1.24.0
<neteditConfiguration xmlns:xsi="http://www.w3.org/2001/XMLSchema-instance" xsi:noNamespaceSchemaLocation="http://sumo.dlr.de/xsd/neteditConfiguration.xsd">

    <input>
        <sumo-net-file value="D:\OneDrive\OneDrive - Politechnika Warszawska\Pulpit\pbad\networks\szczecin\szczecin_small.net.xml"/>
    </input>

    <output>
        <output-file value="D:\OneDrive\OneDrive - Politechnika Warszawska\Pulpit\pbad\networks\szczecin\szczecin_small.net.xml"/>
    </output>

    <processing>
        <geometry.min-radius.fix.railways value="false"/>
        <geometry.avoid-overlap value="false"/>
        <geometry.max-grade.fix value="false"/>
        <offset.disable-normalization value="true"/>
        <lefthand value="0"/>
    </processing>

    <junctions>
        <no-turnarounds value="true"/>
        <junctions.corner-detail value="5"/>
        <junctions.limit-turn-speed value="5.50"/>
        <rectangular-lane-cut value="0"/>
    </junctions>

    <pedestrian>
        <walkingareas value="0"/>
    </pedestrian>

</neteditConfiguration>
-->

<net version="1.20" junctionCornerDetail="5" limitTurnSpeed="5.50" avoidOverlap="0" xmlns:xsi="http://www.w3.org/2001/XMLSchema-instance" xsi:noNamespaceSchemaLocation="http://sumo.dlr.de/xsd/net_file.xsd">

    <location netOffset="-470605.34,-5921482.49" convBoundary="735.71,0.00,2403.53,2755.73" origBoundary="14.557286,53.437913,14.605018,53.476172" projParameter="+proj=utm +zone=33 +ellps=WGS84 +datum=WGS84 +units=m +no_defs"/>

    <type id="highway.tertiary" priority="10" numLanes="1" speed="22.22" disallow="tram rail_urban rail rail_electric rail_fast ship container cable_car subway aircraft wheelchair scooter drone" oneway="0"/>
    <type id="railway.rail" priority="20" numLanes="1" speed="44.44" allow="rail" oneway="1"/>

    <edge id=":1733624737_0" function="internal">
        <lane id=":1733624737_0_0" index="0" disallow="tram rail_urban rail rail_electric rail_fast ship container cable_car subway aircraft wheelchair scooter drone" speed="12.50" length="0.28" shape="1511.74,2082.06 1511.61,2081.82"/>
    </edge>
    <edge id=":1733624737_1" function="internal">
        <lane id=":1733624737_1_0" index="0" disallow="tram rail_urban rail rail_electric rail_fast ship container cable_car subway aircraft wheelchair scooter drone" speed="12.50" length="0.31" shape="1514.45,2080.34 1514.59,2080.62"/>
    </edge>
    <edge id=":1733624745_0" function="internal">
        <lane id=":1733624745_0_0" index="0" disallow="tram rail_urban rail rail_electric rail_fast ship container cable_car subway aircraft wheelchair scooter drone" speed="22.22" length="0.31" shape="1423.59,2278.44 1423.41,2278.69"/>
    </edge>
    <edge id=":1733624745_1" function="internal">
        <lane id=":1733624745_1_0" index="0" disallow="tram rail_urban rail rail_electric rail_fast ship container cable_car subway aircraft wheelchair scooter drone" speed="22.22" length="0.29" shape="1420.82,2276.81 1420.99,2276.58"/>
    </edge>
    <edge id=":2207353109_0" function="internal">
        <lane id=":2207353109_0_0" index="0" disallow="tram rail_urban rail rail_electric rail_fast ship container cable_car subway aircraft wheelchair scooter drone" speed="13.89" length="0.30" shape="1399.67,2619.84 1399.72,2620.14"/>
        <lane id=":2207353109_0_1" index="1" disallow="tram rail_urban rail rail_electric rail_fast ship container cable_car subway aircraft wheelchair scooter drone" speed="13.89" length="0.30" shape="1396.52,2620.40 1396.57,2620.70"/>
    </edge>
    <edge id=":2229571981_0" function="internal">
        <lane id=":2229571981_0_0" index="0" disallow="tram rail_urban rail rail_electric rail_fast ship container cable_car subway aircraft wheelchair scooter drone" speed="13.89" length="7.89" shape="1237.91,2238.83 1234.19,2231.88"/>
    </edge>
    <edge id=":2229571981_1" function="internal">
        <lane id=":2229571981_1_0" index="0" disallow="tram rail_urban rail rail_electric rail_fast ship container cable_car subway aircraft wheelchair scooter drone" speed="13.89" length="8.41" shape="1236.99,2230.33 1238.63,2232.25 1240.34,2233.09 1242.03,2233.93 1243.60,2235.89"/>
        <lane id=":2229571981_1_1" index="1" disallow="tram rail_urban rail rail_electric rail_fast ship container cable_car subway aircraft wheelchair scooter drone" speed="13.89" length="8.41" shape="1236.99,2230.33 1240.76,2237.36"/>
    </edge>
    <edge id=":254059921_0" function="internal">
        <lane id=":254059921_0_0" index="0" disallow="tram rail_urban rail rail_electric rail_fast ship container cable_car subway aircraft wheelchair scooter drone" speed="13.89" length="0.39" shape="1359.72,2525.16 1359.63,2524.78"/>
    </edge>
    <edge id=":254059921_1" function="internal">
        <lane id=":254059921_1_0" index="0" disallow="tram rail_urban rail rail_electric rail_fast ship container cable_car subway aircraft wheelchair scooter drone" speed="13.89" length="0.18" shape="1365.84,2523.25 1365.69,2523.13"/>
        <lane id=":254059921_1_1" index="1" disallow="tram rail_urban rail rail_electric rail_fast ship container cable_car subway aircraft wheelchair scooter drone" speed="13.89" length="0.18" shape="1362.73,2524.01 1362.66,2524.17"/>
    </edge>
    <edge id=":254060200_0" function="internal">
        <lane id=":254060200_0_0" index="0" disallow="tram rail_urban rail rail_electric rail_fast ship container cable_car subway aircraft wheelchair scooter drone" speed="16.66" length="0.57" shape="1534.23,2127.08 1534.22,2127.25 1534.20,2127.36 1534.18,2127.48 1534.15,2127.64"/>
    </edge>
    <edge id=":254060200_1" function="internal">
        <lane id=":254060200_1_0" index="0" disallow="tram rail_urban rail rail_electric rail_fast ship container cable_car subway aircraft wheelchair scooter drone" speed="3.65" length="2.34" shape="1534.23,2127.08 1533.34,2128.21 1532.51,2128.55"/>
    </edge>
    <edge id=":254060200_4" function="internal">
        <lane id=":254060200_4_0" index="0" disallow="tram rail_urban rail rail_electric rail_fast ship container cable_car subway aircraft wheelchair scooter drone" speed="3.65" length="2.34" shape="1532.51,2128.55 1531.74,2128.08 1531.04,2126.82"/>
    </edge>
    <edge id=":254060200_2" function="internal">
        <lane id=":254060200_2_0" index="0" disallow="tram rail_urban rail rail_electric rail_fast ship container cable_car subway aircraft wheelchair scooter drone" speed="16.66" length="0.19" shape="1531.01,2127.01 1531.03,2126.95 1531.03,2126.92 1531.04,2126.88 1531.04,2126.82"/>
    </edge>
    <edge id=":254060200_3" function="internal">
        <lane id=":254060200_3_0" index="0" disallow="tram rail_urban rail rail_electric rail_fast ship container cable_car subway aircraft wheelchair scooter drone" speed="3.65" length="2.34" shape="1531.01,2127.01 1532.04,2125.99 1532.90,2125.76"/>
    </edge>
    <edge id=":254060200_5" function="internal">
        <lane id=":254060200_5_0" index="0" disallow="tram rail_urban rail rail_electric rail_fast ship container cable_car subway aircraft wheelchair scooter drone" speed="3.65" length="2.34" shape="1532.90,2125.76 1533.60,2126.31 1534.15,2127.64"/>
    </edge>
    <edge id=":3808244892_0" function="internal">
        <lane id=":3808244892_0_0" index="0" disallow="tram rail_urban rail rail_electric rail_fast ship container cable_car subway aircraft wheelchair scooter drone" speed="13.89" length="0.26" shape="1318.63,2401.90 1318.52,2401.66"/>
    </edge>
    <edge id=":3808244892_1" function="internal">
        <lane id=":3808244892_1_0" index="0" disallow="tram rail_urban rail rail_electric rail_fast ship container cable_car subway aircraft wheelchair scooter drone" speed="13.89" length="0.31" shape="1324.41,2399.14 1324.53,2399.44"/>
        <lane id=":3808244892_1_1" index="1" disallow="tram rail_urban rail rail_electric rail_fast ship container cable_car subway aircraft wheelchair scooter drone" speed="13.89" length="0.31" shape="1321.47,2400.40 1321.58,2400.67"/>
    </edge>
    <edge id=":5538301754_0" function="internal">
        <lane id=":5538301754_0_0" index="0" disallow="tram rail_urban rail rail_electric rail_fast ship container cable_car subway aircraft wheelchair scooter drone" speed="13.89" length="0.30" shape="1228.83,2222.21 1228.69,2221.94"/>
    </edge>
    <edge id=":5538301754_1" function="internal">
        <lane id=":5538301754_1_0" index="0" disallow="tram rail_urban rail rail_electric rail_fast ship container cable_car subway aircraft wheelchair scooter drone" speed="13.89" length="0.30" shape="1231.49,2220.40 1231.63,2220.66"/>
    </edge>
    <edge id=":7788389252_0" function="internal">
        <lane id=":7788389252_0_0" index="0" disallow="tram rail_urban rail rail_electric rail_fast ship container cable_car subway aircraft wheelchair scooter drone" speed="13.89" length="3.04" width="2.83" shape="1278.70,2408.68 1276.09,2410.25"/>
    </edge>
    <edge id=":7788389252_1" function="internal">
        <lane id=":7788389252_1_0" index="0" disallow="tram rail_urban rail rail_electric rail_fast ship container cable_car subway aircraft wheelchair scooter drone" speed="13.89" length="3.03" width="3.25" shape="1272.88,2405.59 1273.54,2404.98 1273.90,2404.47 1274.27,2403.96 1274.95,2403.37"/>
        <lane id=":7788389252_1_1" index="1" disallow="tram rail_urban rail rail_electric rail_fast ship container cable_car subway aircraft wheelchair scooter drone" speed="13.89" length="3.03" width="3.25" shape="1274.49,2407.92 1276.82,2406.02"/>
    </edge>
    <edge id=":7788401687_0" function="internal">
        <lane id=":7788401687_0_0" index="0" disallow="tram rail_urban rail rail_electric rail_fast ship container cable_car subway aircraft wheelchair scooter drone" speed="13.89" length="0.10" width="3.25" shape="1036.60,2593.75 1036.60,2593.75"/>
    </edge>
    <edge id=":7788401687_1" function="internal">
        <lane id=":7788401687_1_0" index="0" disallow="tram rail_urban rail rail_electric rail_fast ship container cable_car subway aircraft wheelchair scooter drone" speed="13.89" length="0.10" width="3.25" shape="1034.38,2591.37 1034.38,2591.37"/>
    </edge>
    <edge id=":7788407806_0" function="internal">
        <lane id=":7788407806_0_0" index="0" disallow="tram rail_urban rail rail_electric rail_fast ship container cable_car subway aircraft wheelchair scooter drone" speed="13.89" length="0.30" width="3.25" shape="1241.63,2436.42 1241.40,2436.60"/>
    </edge>
    <edge id=":7788407806_1" function="internal">
        <lane id=":7788407806_1_0" index="0" disallow="tram rail_urban rail rail_electric rail_fast ship container cable_car subway aircraft wheelchair scooter drone" speed="13.89" length="0.30" width="3.25" shape="1239.44,2434.00 1239.68,2433.82"/>
    </edge>
    <edge id=":7788478075_0" function="internal">
        <lane id=":7788478075_0_0" index="0" disallow="tram rail_urban rail rail_electric rail_fast ship container cable_car subway aircraft wheelchair scooter drone" speed="13.89" length="0.30" width="3.25" shape="1244.08,2434.59 1243.84,2434.77"/>
    </edge>
    <edge id=":7788478075_1" function="internal">
        <lane id=":7788478075_1_0" index="0" disallow="tram rail_urban rail rail_electric rail_fast ship container cable_car subway aircraft wheelchair scooter drone" speed="13.89" length="0.30" width="3.25" shape="1241.89,2432.17 1242.12,2431.99"/>
    </edge>
    <edge id=":7788482491_0" function="internal">
        <lane id=":7788482491_0_0" index="0" disallow="tram rail_urban rail rail_electric rail_fast ship container cable_car subway aircraft wheelchair scooter drone" speed="13.89" length="0.10" width="3.25" shape="1143.53,2503.66 1143.53,2503.66"/>
    </edge>
    <edge id=":7788482491_1" function="internal">
        <lane id=":7788482491_1_0" index="0" disallow="tram rail_urban rail rail_electric rail_fast ship container cable_car subway aircraft wheelchair scooter drone" speed="13.89" length="0.10" width="3.25" shape="1141.77,2500.94 1141.77,2500.94"/>
    </edge>
    <edge id=":cluster_12590986567_254060091_3808244846_7788460158_#2more_0" function="internal">
        <lane id=":cluster_12590986567_254060091_3808244846_7788460158_#2more_0_0" index="0" disallow="tram rail_urban rail rail_electric rail_fast ship container cable_car subway aircraft wheelchair scooter drone" speed="7.18" length="12.80" width="3.25" shape="1314.14,2391.84 1312.53,2389.85 1310.15,2389.28 1307.01,2390.13 1303.10,2392.41"/>
    </edge>
    <edge id=":cluster_12590986567_254060091_3808244846_7788460158_#2more_1" function="internal">
        <lane id=":cluster_12590986567_254060091_3808244846_7788460158_#2more_1_0" index="0" disallow="tram rail_urban rail rail_electric rail_fast ship container cable_car subway aircraft wheelchair scooter drone" speed="13.89" length="17.92" shape="1314.14,2391.84 1306.62,2375.57"/>
    </edge>
    <edge id=":cluster_12590986567_254060091_3808244846_7788460158_#2more_2" function="internal">
        <lane id=":cluster_12590986567_254060091_3808244846_7788460158_#2more_2_0" index="0" disallow="tram rail_urban rail rail_electric rail_fast ship container cable_car subway aircraft wheelchair scooter drone" speed="10.79" length="3.19" shape="1314.14,2391.84 1313.50,2388.72"/>
    </edge>
    <edge id=":cluster_12590986567_254060091_3808244846_7788460158_#2more_3" function="internal">
        <lane id=":cluster_12590986567_254060091_3808244846_7788460158_#2more_3_0" index="0" disallow="tram rail_urban rail rail_electric rail_fast ship container cable_car subway aircraft wheelchair scooter drone" speed="3.65" length="1.44" shape="1314.14,2391.84 1314.38,2390.42"/>
    </edge>
    <edge id=":cluster_12590986567_254060091_3808244846_7788460158_#2more_17" function="internal">
        <lane id=":cluster_12590986567_254060091_3808244846_7788460158_#2more_17_0" index="0" disallow="tram rail_urban rail rail_electric rail_fast ship container cable_car subway aircraft wheelchair scooter drone" speed="10.79" length="19.87" shape="1313.50,2388.72 1313.18,2387.21 1314.49,2382.52 1318.06,2377.80 1323.90,2373.03"/>
    </edge>
    <edge id=":cluster_12590986567_254060091_3808244846_7788460158_#2more_18" function="internal">
        <lane id=":cluster_12590986567_254060091_3808244846_7788460158_#2more_18_0" index="0" disallow="tram rail_urban rail rail_electric rail_fast ship container cable_car subway aircraft wheelchair scooter drone" speed="3.65" length="3.23" shape="1314.38,2390.42 1314.94,2389.72 1315.83,2389.76 1317.06,2390.52"/>
    </edge>
    <edge id=":cluster_12590986567_254060091_3808244846_7788460158_#2more_4" function="internal">
        <lane id=":cluster_12590986567_254060091_3808244846_7788460158_#2more_4_0" index="0" disallow="tram rail_urban rail rail_electric rail_fast ship container cable_car subway aircraft wheelchair scooter drone" speed="9.09" length="16.11" shape="1325.72,2375.67 1321.96,2378.85 1319.75,2382.16 1319.09,2385.61 1319.97,2389.20"/>
    </edge>
    <edge id=":cluster_12590986567_254060091_3808244846_7788460158_#2more_5" function="internal">
        <lane id=":cluster_12590986567_254060091_3808244846_7788460158_#2more_5_0" index="0" disallow="tram rail_urban rail rail_electric rail_fast ship container cable_car subway aircraft wheelchair scooter drone" speed="18.05" length="28.14" width="3.25" shape="1325.72,2375.67 1303.10,2392.41"/>
    </edge>
    <edge id=":cluster_12590986567_254060091_3808244846_7788460158_#2more_6" function="internal">
        <lane id=":cluster_12590986567_254060091_3808244846_7788460158_#2more_6_0" index="0" disallow="tram rail_urban rail rail_electric rail_fast ship container cable_car subway aircraft wheelchair scooter drone" speed="9.35" length="22.21" shape="1325.72,2375.67 1319.12,2379.37 1313.74,2380.59 1309.57,2379.33 1306.62,2375.57"/>
    </edge>
    <edge id=":cluster_12590986567_254060091_3808244846_7788460158_#2more_7" function="internal">
        <lane id=":cluster_12590986567_254060091_3808244846_7788460158_#2more_7_0" index="0" disallow="tram rail_urban rail rail_electric rail_fast ship container cable_car subway aircraft wheelchair scooter drone" speed="3.65" length="4.67" shape="1325.72,2375.67 1324.27,2375.69 1323.49,2375.26 1323.37,2374.37 1323.90,2373.03"/>
    </edge>
    <edge id=":cluster_12590986567_254060091_3808244846_7788460158_#2more_8" function="internal">
        <lane id=":cluster_12590986567_254060091_3808244846_7788460158_#2more_8_0" index="0" disallow="tram rail_urban rail rail_electric rail_fast ship container cable_car subway aircraft wheelchair scooter drone" speed="7.38" length="13.38" shape="1312.42,2372.86 1314.21,2375.15 1316.72,2375.95 1319.95,2375.24 1323.90,2373.03"/>
    </edge>
    <edge id=":cluster_12590986567_254060091_3808244846_7788460158_#2more_9" function="internal">
        <lane id=":cluster_12590986567_254060091_3808244846_7788460158_#2more_9_0" index="0" disallow="tram rail_urban rail rail_electric rail_fast ship container cable_car subway aircraft wheelchair scooter drone" speed="13.89" length="17.98" shape="1312.42,2372.86 1319.97,2389.20"/>
        <lane id=":cluster_12590986567_254060091_3808244846_7788460158_#2more_9_1" index="1" disallow="tram rail_urban rail rail_electric rail_fast ship container cable_car subway aircraft wheelchair scooter drone" speed="13.89" length="17.98" shape="1309.52,2374.21 1317.06,2390.52"/>
    </edge>
    <edge id=":cluster_12590986567_254060091_3808244846_7788460158_#2more_11" function="internal">
        <lane id=":cluster_12590986567_254060091_3808244846_7788460158_#2more_11_0" index="0" disallow="tram rail_urban rail rail_electric rail_fast ship container cable_car subway aircraft wheelchair scooter drone" speed="10.34" length="4.53" width="3.25" shape="1309.52,2374.21 1310.75,2378.58"/>
    </edge>
    <edge id=":cluster_12590986567_254060091_3808244846_7788460158_#2more_12" function="internal">
        <lane id=":cluster_12590986567_254060091_3808244846_7788460158_#2more_12_0" index="0" disallow="tram rail_urban rail rail_electric rail_fast ship container cable_car subway aircraft wheelchair scooter drone" speed="3.65" length="1.44" shape="1309.52,2374.21 1309.31,2375.64"/>
    </edge>
    <edge id=":cluster_12590986567_254060091_3808244846_7788460158_#2more_19" function="internal">
        <lane id=":cluster_12590986567_254060091_3808244846_7788460158_#2more_19_0" index="0" disallow="tram rail_urban rail rail_electric rail_fast ship container cable_car subway aircraft wheelchair scooter drone" speed="10.34" length="16.70" width="3.25" shape="1310.75,2378.58 1310.94,2379.23 1310.34,2383.93 1307.73,2388.33 1303.10,2392.41"/>
    </edge>
    <edge id=":cluster_12590986567_254060091_3808244846_7788460158_#2more_20" function="internal">
        <lane id=":cluster_12590986567_254060091_3808244846_7788460158_#2more_20_0" index="0" disallow="tram rail_urban rail rail_electric rail_fast ship container cable_car subway aircraft wheelchair scooter drone" speed="3.65" length="3.23" shape="1309.31,2375.64 1308.75,2376.34 1307.86,2376.32 1306.62,2375.57"/>
    </edge>
    <edge id=":cluster_12590986567_254060091_3808244846_7788460158_#2more_13" function="internal">
        <lane id=":cluster_12590986567_254060091_3808244846_7788460158_#2more_13_0" index="0" disallow="tram rail_urban rail rail_electric rail_fast ship container cable_car subway aircraft wheelchair scooter drone" speed="8.66" length="14.62" shape="1299.38,2387.08 1303.41,2383.87 1305.95,2380.88 1307.03,2378.12 1306.62,2375.57"/>
    </edge>
    <edge id=":cluster_12590986567_254060091_3808244846_7788460158_#2more_14" function="internal">
        <lane id=":cluster_12590986567_254060091_3808244846_7788460158_#2more_14_0" index="0" disallow="tram rail_urban rail rail_electric rail_fast ship container cable_car subway aircraft wheelchair scooter drone" speed="18.05" length="28.27" shape="1299.38,2387.08 1306.09,2382.87 1313.17,2378.97 1319.49,2375.62 1323.90,2373.03"/>
    </edge>
    <edge id=":cluster_12590986567_254060091_3808244846_7788460158_#2more_15" function="internal">
        <lane id=":cluster_12590986567_254060091_3808244846_7788460158_#2more_15_0" index="0" disallow="tram rail_urban rail rail_electric rail_fast ship container cable_car subway aircraft wheelchair scooter drone" speed="8.55" length="5.80" shape="1301.24,2389.75 1306.30,2386.91"/>
    </edge>
    <edge id=":cluster_12590986567_254060091_3808244846_7788460158_#2more_16" function="internal">
        <lane id=":cluster_12590986567_254060091_3808244846_7788460158_#2more_16_0" index="0" disallow="tram rail_urban rail rail_electric rail_fast ship container cable_car subway aircraft wheelchair scooter drone" speed="3.68" length="1.46" width="3.25" shape="1301.24,2389.75 1302.70,2389.72"/>
    </edge>
    <edge id=":cluster_12590986567_254060091_3808244846_7788460158_#2more_21" function="internal">
        <lane id=":cluster_12590986567_254060091_3808244846_7788460158_#2more_21_0" index="0" disallow="tram rail_urban rail rail_electric rail_fast ship container cable_car subway aircraft wheelchair scooter drone" speed="8.55" length="12.84" shape="1306.30,2386.91 1306.64,2386.72 1311.07,2385.84 1314.54,2387.11 1317.06,2390.52"/>
    </edge>
    <edge id=":cluster_12590986567_254060091_3808244846_7788460158_#2more_22" function="internal">
        <lane id=":cluster_12590986567_254060091_3808244846_7788460158_#2more_22_0" index="0" disallow="tram rail_urban rail rail_electric rail_fast ship container cable_car subway aircraft wheelchair scooter drone" speed="3.68" length="3.28" width="3.25" shape="1302.70,2389.72 1303.50,2390.15 1303.63,2391.05 1303.10,2392.41"/>
    </edge>
    <edge id=":cluster_13037952305_13037952306_0" function="internal">
        <lane id=":cluster_13037952305_13037952306_0_0" index="0" disallow="tram rail_urban rail rail_electric rail_fast ship container cable_car subway aircraft wheelchair scooter drone" speed="13.89" length="0.29" shape="1239.59,2242.06 1239.45,2241.80"/>
    </edge>
    <edge id=":cluster_13037952305_13037952306_1" function="internal">
        <lane id=":cluster_13037952305_13037952306_1_0" index="0" disallow="tram rail_urban rail rail_electric rail_fast ship container cable_car subway aircraft wheelchair scooter drone" speed="13.89" length="0.30" shape="1245.14,2238.86 1245.28,2239.14"/>
        <lane id=":cluster_13037952305_13037952306_1_1" index="1" disallow="tram rail_urban rail rail_electric rail_fast ship container cable_car subway aircraft wheelchair scooter drone" speed="13.89" length="0.30" shape="1242.29,2240.33 1242.43,2240.60"/>
    </edge>
    <edge id=":cluster_1668047339_7788381456_7788478077_0" function="internal">
        <lane id=":cluster_1668047339_7788381456_7788478077_0_0" index="0" disallow="tram rail_urban rail rail_electric rail_fast ship container cable_car subway aircraft wheelchair scooter drone" speed="13.89" length="6.12" width="3.25" shape="1157.42,2494.69 1152.27,2498.00"/>
    </edge>
    <edge id=":cluster_1668047339_7788381456_7788478077_1" function="internal">
        <lane id=":cluster_1668047339_7788381456_7788478077_1_0" index="0" disallow="tram rail_urban rail rail_electric rail_fast ship container cable_car subway aircraft wheelchair scooter drone" speed="13.89" length="6.13" width="3.25" shape="1150.51,2495.28 1155.66,2491.95"/>
    </edge>
    <edge id=":cluster_1733624746_4630734755_0" function="internal">
        <lane id=":cluster_1733624746_4630734755_0_0" index="0" disallow="tram rail_urban rail rail_electric rail_fast ship container cable_car subway aircraft wheelchair scooter drone" speed="22.22" length="0.35" shape="1419.03,2284.72 1418.82,2284.99"/>
    </edge>
    <edge id=":cluster_1733624746_4630734755_1" function="internal">
        <lane id=":cluster_1733624746_4630734755_1_0" index="0" disallow="tram rail_urban rail rail_electric rail_fast ship container cable_car subway aircraft wheelchair scooter drone" speed="22.22" length="0.12" shape="1416.37,2282.93 1416.44,2282.84"/>
    </edge>
    <edge id=":cluster_1733624749_4630734759_0" function="internal">
        <lane id=":cluster_1733624749_4630734759_0_0" index="0" disallow="tram rail_urban rail rail_electric rail_fast ship container cable_car subway aircraft wheelchair scooter drone" speed="22.22" length="0.31" shape="1340.49,2364.74 1340.26,2364.94"/>
    </edge>
    <edge id=":cluster_1733624749_4630734759_1" function="internal">
        <lane id=":cluster_1733624749_4630734759_1_0" index="0" disallow="tram rail_urban rail rail_electric rail_fast ship container cable_car subway aircraft wheelchair scooter drone" speed="22.22" length="0.22" shape="1338.22,2362.47 1338.39,2362.33"/>
    </edge>
    <edge id=":cluster_254060033_313419076_0" function="internal">
        <lane id=":cluster_254060033_313419076_0_0" index="0" disallow="tram rail_urban rail rail_electric rail_fast ship container cable_car subway aircraft wheelchair scooter drone" speed="13.89" length="0.30" shape="1416.17,2713.29 1416.22,2713.60"/>
        <lane id=":cluster_254060033_313419076_0_1" index="1" disallow="tram rail_urban rail rail_electric rail_fast ship container cable_car subway aircraft wheelchair scooter drone" speed="13.89" length="0.30" shape="1413.02,2713.85 1413.07,2714.14"/>
    </edge>
    <edge id=":cluster_254060086_4630734771_0" function="internal">
        <lane id=":cluster_254060086_4630734771_0_0" index="0" disallow="tram rail_urban rail rail_electric rail_fast ship container cable_car subway aircraft wheelchair scooter drone" speed="13.89" length="0.15" shape="1338.72,2453.57 1338.67,2453.43"/>
    </edge>
    <edge id=":cluster_254060086_4630734771_1" function="internal">
        <lane id=":cluster_254060086_4630734771_1_0" index="0" disallow="tram rail_urban rail rail_electric rail_fast ship container cable_car subway aircraft wheelchair scooter drone" speed="13.89" length="0.30" shape="1344.66,2451.18 1344.78,2451.51"/>
        <lane id=":cluster_254060086_4630734771_1_1" index="1" disallow="tram rail_urban rail rail_electric rail_fast ship container cable_car subway aircraft wheelchair scooter drone" speed="13.89" length="0.30" shape="1341.66,2452.30 1341.75,2452.54"/>
    </edge>
    <edge id=":cluster_254060199_254062398_0" function="internal">
        <lane id=":cluster_254060199_254062398_0_0" index="0" disallow="tram rail_urban rail rail_electric rail_fast ship container cable_car subway aircraft wheelchair scooter drone" speed="22.22" length="20.41" shape="1505.95,2163.99 1493.99,2180.53"/>
    </edge>
    <edge id=":cluster_254060199_254062398_1" function="internal">
        <lane id=":cluster_254060199_254062398_1_0" index="0" disallow="tram rail_urban rail rail_electric rail_fast ship container cable_car subway aircraft wheelchair scooter drone" speed="3.65" length="1.44" shape="1505.95,2163.99 1504.59,2164.48"/>
    </edge>
    <edge id=":cluster_254060199_254062398_4" function="internal">
        <lane id=":cluster_254060199_254062398_4_0" index="0" disallow="tram rail_urban rail rail_electric rail_fast ship container cable_car subway aircraft wheelchair scooter drone" speed="3.65" length="3.23" shape="1504.59,2164.48 1503.71,2164.33 1503.30,2163.53 1503.37,2162.09"/>
    </edge>
    <edge id=":cluster_254060199_254062398_2" function="internal">
        <lane id=":cluster_254060199_254062398_2_0" index="0" disallow="tram rail_urban rail rail_electric rail_fast ship container cable_car subway aircraft wheelchair scooter drone" speed="22.22" length="20.46" shape="1491.39,2178.67 1503.37,2162.09"/>
    </edge>
    <edge id=":cluster_254060199_254062398_3" function="internal">
        <lane id=":cluster_254060199_254062398_3_0" index="0" disallow="tram rail_urban rail rail_electric rail_fast ship container cable_car subway aircraft wheelchair scooter drone" speed="3.65" length="1.44" shape="1491.39,2178.67 1492.73,2178.16"/>
    </edge>
    <edge id=":cluster_254060199_254062398_5" function="internal">
        <lane id=":cluster_254060199_254062398_5_0" index="0" disallow="tram rail_urban rail rail_electric rail_fast ship container cable_car subway aircraft wheelchair scooter drone" speed="3.65" length="3.23" shape="1492.73,2178.16 1493.62,2178.30 1494.04,2179.08 1493.99,2180.53"/>
    </edge>
    <edge id=":cluster_254060212_7788381457_7788381473_7788462517_#3more_0" function="internal">
        <lane id=":cluster_254060212_7788381457_7788381473_7788462517_#3more_0_0" index="0" disallow="tram rail_urban rail rail_electric rail_fast ship container cable_car subway aircraft wheelchair scooter drone" speed="13.89" length="13.19" width="3.25" shape="1131.67,2511.34 1120.68,2518.64"/>
    </edge>
    <edge id=":cluster_254060212_7788381457_7788381473_7788462517_#3more_1" function="internal">
        <lane id=":cluster_254060212_7788381457_7788381473_7788462517_#3more_1_0" index="0" disallow="tram rail_urban rail rail_electric rail_fast ship container cable_car subway aircraft wheelchair scooter drone" speed="3.68" length="1.46" width="3.25" shape="1131.67,2511.34 1130.21,2511.32"/>
    </edge>
    <edge id=":cluster_254060212_7788381457_7788381473_7788462517_#3more_4" function="internal">
        <lane id=":cluster_254060212_7788381457_7788381473_7788462517_#3more_4_0" index="0" disallow="tram rail_urban rail rail_electric rail_fast ship container cable_car subway aircraft wheelchair scooter drone" speed="3.68" length="3.28" width="3.25" shape="1130.21,2511.32 1129.43,2510.86 1129.33,2509.96 1129.91,2508.62"/>
    </edge>
    <edge id=":cluster_254060212_7788381457_7788381473_7788462517_#3more_2" function="internal">