<?xml version="1.0" encoding="UTF-8"?>

<!-- generated on 2025-12-30 22:08:48 by Eclipse SUMO jtrrouter Version 1.24.0
<jtrrouterConfiguration xmlns:xsi="http://www.w3.org/2001/XMLSchema-instance" xsi:noNamespaceSchemaLocation="http://sumo.dlr.de/xsd/jtrrouterConfiguration.xsd">

    <input>
        <net-file value="szczecin_small.net.xml"/>
        <route-files value="flows_0.4.xml"/>
    </input>

    <output>
        <output-file value="traffic_0.4.rou.xml"/>
    </output>

    <processing>
        <accept-all-destinations value="true"/>
    </processing>

</jtrrouterConfiguration>
-->

<routes xmlns:xsi="http://www.w3.org/2001/XMLSchema-instance" xsi:noNamespaceSchemaLocation="http://sumo.dlr.de/xsd/routes_file.xsd">
    <vehicle id="flow_154244700#5_0.0" depart="0.00">
        <route edges="154244700#5 154244700#6 154244700#7 154244700#8 154244700#11 154244700#12 154244700#14 154244700#15 154244700#16 154244700#17 -154244700#17 -154244700#16 -154244700#15 -154244700#14 -154244700#12 -154244700#11 -154244700#8 -154244700#7 -154244700#6 -154244700#5"/>
    </vehicle>
    <vehicle id="flow_172790916#1_0.0" depart="0.00">
        <route edges="172790916#1 172790916#2 356331770#0 356331770#1 -45818139#4 -45818139#2 -45818139#0 356331769#0 356331769#1 356331768"/>
    </vehicle>
    <vehicle id="flow_23459720#1_0.0" depart="0.00">
        <route edges="23459720#1 362987285 -24827848 -24827849#7 -24827849#6 -24827849#5 -24827849#4 24827849#2 24827849#5 24827849#6 24827849#7 24827849#9 -362987285 -23459720#1"/>
    </vehicle>
    <vehicle id="flow_356331765_0.0" depart="0.00">
        <route edges="356331765 45818139#0 45818139#1 45818139#3 -678630296#1 -834337140#1 -154244700#17 -154244700#16 -154244700#15 -154244700#14 -154244700#12 -154244700#11 154244700#11 154244700#12 154244700#14 154244700#15 154244700#16 154244700#17 834337140#1 678630296#0 -356331770#2 -356331770#0 -172790916#2 -172790916#1"/>
    </vehicle>
    <vehicle id="flow_172790916#1_0.1" depart="78.26">
        <route edges="172790916#1 172790916#2 356331770#0 356331770#1 24827849#2 24827849#5 24827849#6 24827849#7 24827849#9 -362987285 -23459720#1"/>
    </vehicle>
    <vehicle id="flow_356331765_0.1" depart="120.00">
        <route edges="356331765 45818139#0 45818139#1 45818139#3 -678630296#1 -834337140#1 -154244700#17 -154244700#16 -154244700#15 -154244700#14 -154244700#12 -154244700#11 -154244700#8 -154244700#7 -154244700#6 -154244700#5"/>
    </vehicle>
    <vehicle id="flow_172790916#1_0.2" depart="156.52">
        <route edges="172790916#1 172790916#2 356331770#0 356331770#1 24827849#2 24827849#5 24827849#6 24827849#7 -24827849#7 -24827849#6 -24827849#5 -24827849#4 -356331770#2 -356331770#0 -172790916#2 -172790916#1"/>
    </vehicle>
    <vehicle id="flow_172790916#1_0.3" depart="234.78">
        <route edges="172790916#1 172790916#2 356331770#0 356331770#1 -45818139#4 -45818139#2 -45818139#0 356331769#0 356331769#1 356331768"/>
    </vehicle>
    <vehicle id="flow_356331765_0.2" depart="240.00">
        <route edges="356331765 45818139#0 45818139#1 45818139#3 24827849#2 24827849#5 24827849#6 24827849#7 24827849#9 -362987285 -23459720#1"/>
    </vehicle>
    <vehicle id="flow_172790916#1_0.4" depart="313.04">
        <route edges="172790916#1 172790916#2 356331770#0 356331770#1 24827849#2 24827849#5 24827849#6 24827849#7 24827849#9 -24827848 -24827849#7 -24827849#6 -24827849#5 -24827849#4 -678630296#1 -834337140#1 834337140#1 678630296#0 -45818139#4 -45818139#2 -45818139#0 356331769#0 356331769#1 356331768"/>
    </vehicle>
    <vehicle id="flow_356331765_0.3" depart="360.00">
        <route edges="356331765 45818139#0 45818139#1 45818139#3 -356331770#2 -356331770#0 -172790916#2 -172790916#1"/>
    </vehicle>
    <vehicle id="flow_172790916#1_0.5" depart="391.31">
        <route edges="172790916#1 172790916#2 356331770#0 356331770#1 24827849#2 24827849#5 24827849#6 24827849#7 24827849#9 -24827848 -24827849#7 -24827849#6 -24827849#5 -24827849#4 -356331770#2 -356331770#0 -172790916#2 -172790916#1"/>
    </vehicle>
    <vehicle id="flow_172790916#1_0.6" depart="469.57">
        <route edges="172790916#1 172790916#2 356331770#0 356331770#1 -45818139#4 -45818139#2 -45818139#0 356331769#0 356331769#1 356331768"/>
    </vehicle>
    <vehicle id="flow_356331765_0.4" depart="480.00">
        <route edges="356331765 45818139#0 45818139#1 45818139#3 24827849#2 24827849#5 24827849#6 24827849#7 24827849#9 -362987285 -23459720#1"/>
    </vehicle>
    <vehicle id="flow_172790916#1_0.7" depart="547.83">
        <route edges="172790916#1 172790916#2 356331770#0 356331770#1 -45818139#4 -45818139#2 -45818139#0 356331769#0 356331769#1 356331768"/>
    </vehicle>
    <vehicle id="flow_23459720#1_0.1" depart="600.00">
        <route edges="23459720#1 362987285 -362987285 -23459720#1"/>
    </vehicle>
    <vehicle id="flow_356331765_0.5" depart="600.00">
        <route edges="356331765 45818139#0 45818139#1 45818139#3 24827849#2 24827849#5 24827849#6 24827849#7 24827849#9 -362987285 -23459720#1"/>
    </vehicle>
    <vehicle id="flow_172790916#1_0.8" depart="626.09">
        <route edges="172790916#1 172790916#2 356331770#0 356331770#1 -678630296#1 -834337140#1 -154244700#17 -154244700#16 -154244700#15 -154244700#14 -154244700#12 -154244700#11 154244700#11 154244700#12 154244700#14 154244700#15 154244700#16 154244700#17 834337140#1 678630296#0 -356331770#2 -356331770#0 -172790916#2 -172790916#1"/>
    </vehicle>
    <vehicle id="flow_172790916#1_0.9" depart="704.35">
        <route edges="172790916#1 172790916#2 356331770#0 356331770#1 -45818139#4 -45818139#2 -45818139#0 356331769#0 356331769#1 356331768"/>
    </vehicle>
    <vehicle id="flow_356331765_0.6" depart="720.00">
        <route edges="356331765 45818139#0 45818139#1 45818139#3 -45818139#4 -45818139#2 -45818139#0 356331769#0 356331769#1 356331768"/>
    </vehicle>
    <vehicle id="flow_172790916#1_0.10" depart="782.61">
        <route edges="172790916#1 172790916#2 356331770#0 356331770#1 -45818139#4 -45818139#2 -45818139#0 356331769#0 356331769#1 356331768"/>
    </vehicle>
    <vehicle id="flow_356331765_0.7" depart="840.00">
        <route edges="356331765 45818139#0 45818139#1 45818139#3 -678630296#1 -834337140#1 834337140#1 678630296#0 -45818139#4 -45818139#2 -45818139#0 356331769#0 356331769#1 356331768"/>
    </vehicle>
    <vehicle id="flow_172790916#1_0.11" depart="860.87">
        <route edges="172790916#1 172790916#2 356331770#0 356331770#1 -678630296#1 -834337140#1 834337140#1 678630296#0 24827849#2 24827849#5 24827849#6 24827849#7 24827849#9 -24827848 -24827849#7 -24827849#6 -24827849#5 -24827849#4 -356331770#2 -356331770#0 -172790916#2 -172790916#1"/>
    </vehicle>
    <vehicle id="flow_154244700#5_0.1" depart="900.00">
        <route edges="154244700#5 154244700#6 154244700#7 154244700#8 154244700#11 154244700#12 154244700#14 154244700#15 154244700#16 154244700#17 834337140#1 678630296#0 -678630296#1 -834337140#1 -154244700#17 -154244700#16 -154244700#15 -154244700#14 -154244700#12 -154244700#11 -154244700#8 -154244700#7 -154244700#6 -154244700#5"/>
    </vehicle>
    <vehicle id="flow_172790916#1_0.12" depart="939.13">
        <route edges="172790916#1 172790916#2 356331770#0 356331770#1 -678630296#1 -834337140#1 -154244700#17 -154244700#16 -154244700#15 -154244700#14 -154244700#12 -154244700#11 -154244700#8 -154244700#7 -154244700#6 -154244700#5"/>
    </vehicle>
    <vehicle id="flow_356331765_0.8" depart="960.00">
        <route edges="356331765 45818139#0 45818139#1 45818139#3 -678630296#1 -834337140#1 834337140#1 678630296#0 -45818139#4 -45818139#2 -45818139#0 356331769#0 356331769#1 356331768"/>
    </vehicle>
    <vehicle id="flow_172790916#1_0.13" depart="1017.39">
        <route edges="172790916#1 172790916#2 356331770#0 356331770#1 -45818139#4 -45818139#2 -45818139#0 356331769#0 356331769#1 356331768"/>
    </vehicle>
    <vehicle id="flow_356331765_0.9" depart="1080.00">
        <route edges="356331765 45818139#0 45818139#1 45818139#3 24827849#2 24827849#5 24827849#6 24827849#7 24827849#9 -24827848 -24827849#7 -24827849#6 -24827849#5 -24827849#4 -678630296#1 -834337140#1 -154244700#17 -154244700#16 -154244700#15 -154244700#14 -154244700#12 -154244700#11 154244700#11 154244700#12 154244700#14 154244700#15 154244700#16 154244700#17 834337140#1 678630296#0 -45818139#4 -45818139#2 -45818139#0 356331769#0 356331769#1 356331768"/>
    </vehicle>
    <vehicle id="flow_172790916#1_0.14" depart="1095.65">
        <route edges="172790916#1 172790916#2 356331770#0 356331770#1 -356331770#2 -356331770#0 -172790916#2 -172790916#1"/>
    </vehicle>
    <vehicle id="flow_172790916#1_0.15" depart="1173.92">
        <route edges="172790916#1 172790916#2 356331770#0 356331770#1 -678630296#1 -834337140#1 -154244700#17 -154244700#16 -154244700#15 -154244700#14 -154244700#12 -154244700#11 -154244700#8 -154244700#7 -154244700#6 -154244700#5"/>
    </vehicle>
    <vehicle id="flow_23459720#1_0.2" depart="1200.00">
        <route edges="23459720#1 362987285 -24827848 24827849#9 -362987285 -23459720#1"/>
    </vehicle>
    <vehicle id="flow_356331765_0.10" depart="1200.00">
        <route edges="356331765 45818139#0 45818139#1 45818139#3 -45818139#4 -45818139#2 -45818139#0 356331769#0 356331769#1 356331768"/>
    </vehicle>
    <vehicle id="flow_172790916#1_0.16" depart="1252.18">
        <route edges="172790916#1 172790916#2 356331770#0 356331770#1 -45818139#4 -45818139#2 -45818139#0 356331769#0 356331769#1 356331768"/>
    </vehicle>
    <vehicle id="flow_356331765_0.11" depart="1320.00">
        <route edges="356331765 45818139#0 45818139#1 45818139#3 -356331770#2 -356331770#0 -172790916#2 -172790916#1"/>
    </vehicle>
    <vehicle id="flow_172790916#1_0.17" depart="1330.44">
        <route edges="172790916#1 172790916#2 356331770#0 356331770#1 24827849#2 24827849#5 24827849#6 24827849#7 -24827849#7 -24827849#6 -24827849#5 -24827849#4 -45818139#4 -45818139#2 -45818139#0 356331769#0 356331769#1 356331768"/>
    </vehicle>
    <vehicle id="flow_172790916#1_0.18" depart="1408.70">
        <route edges="172790916#1 172790916#2 356331770#0 356331770#1 24827849#2 24827849#5 24827849#6 24827849#7 24827849#9 -24827848 -24827849#7 -24827849#6 -24827849#5 -24827849#4 -356331770#2 -356331770#0 -172790916#2 -172790916#1"/>
    </vehicle>
    <vehicle id="flow_356331765_0.12" depart="1440.00">
        <route edges="356331765 45818139#0 45818139#1 45818139#3 -356331770#2 -356331770#0 -172790916#2 -172790916#1"/>
    </vehicle>
    <vehicle id="flow_172790916#1_0.19" depart="1486.96">
        <route edges="172790916#1 172790916#2 356331770#0 356331770#1 -678630296#1 -834337140#1 834337140#1 678630296#0 24827849#2 24827849#5 24827849#6 24827849#7 24827849#9 -362987285 -23459720#1"/>
    </vehicle>
    <vehicle id="flow_356331765_0.13" depart="1560.00">
        <route edges="356331765 45818139#0 45818139#1 45818139#3 -45818139#4 -45818139#2 -45818139#0 356331769#0 356331769#1 356331768"/>
    </vehicle>
    <vehicle id="flow_172790916#1_0.20" depart="1565.22">
        <route edges="172790916#1 172790916#2 356331770#0 356331770#1 -678630296#1 -834337140#1 834337140#1 678630296#0 -45818139#4 -45818139#2 -45818139#0 356331769#0 356331769#1 356331768"/>
    </vehicle>
    <vehicle id="flow_172790916#1_0.21" depart="1643.48">
        <route edges="172790916#1 172790916#2 356331770#0 356331770#1 24827849#2 24827849#5 24827849#6 24827849#7 -24827849#7 -24827849#6 -24827849#5 -24827849#4 -45818139#4 -45818139#2 -45818139#0 356331769#0 356331769#1 356331768"/>
    </vehicle>
    <vehicle id="flow_356331765_0.14" depart="1680.00">
        <route edges="356331765 45818139#0 45818139#1 45818139#3 -678630296#1 -834337140#1 834337140#1 678630296#0 -356331770#2 -356331770#0 -172790916#2 -172790916#1"/>
    </vehicle>
    <vehicle id="flow_172790916#1_0.22" depart="1721.74">
        <route edges="172790916#1 172790916#2 356331770#0 356331770#1 -356331770#2 -356331770#0 -172790916#2 -172790916#1"/>
    </vehicle>
    <vehicle id="flow_154244700#5_0.2" depart="1800.00">
        <route edges="154244700#5 154244700#6 154244700#7 154244700#8 154244700#11 154244700#12 154244700#14 154244700#15 154244700#16 154244700#17 -154244700#17 -154244700#16 -154244700#15 -154244700#14 -154244700#12 -154244700#11 -154244700#8 -154244700#7 -154244700#6 -154244700#5"/>
    </vehicle>
    <vehicle id="flow_23459720#1_0.3" depart="1800.00">
        <route edges="23459720#1 362987285 -24827848 -24827849#7 -24827849#6 -24827849#5 -24827849#4 -45818139#4 -45818139#2 -45818139#0 356331769#0 356331769#1 356331768"/>
    </vehicle>
    <vehicle id="flow_356331765_0.15" depart="1800.00">
        <route edges="356331765 45818139#0 45818139#1 45818139#3 24827849#2 24827849#5 24827849#6 24827849#7 -24827849#7 -24827849#6 -24827849#5 -24827849#4 -45818139#4 -45818139#2 -45818139#0 356331769#0 356331769#1 356331768"/>
    </vehicle>
    <vehicle id="flow_172790916#1_0.23" depart="1800.00">
        <route edges="172790916#1 172790916#2 356331770#0 356331770#1 -45818139#4 -45818139#2 -45818139#0 356331769#0 356331769#1 356331768"/>
    </vehicle>
    <vehicle id="flow_172790916#1_0.24" depart="1878.26">
        <route edges="172790916#1 172790916#2 356331770#0 356331770#1 -45818139#4 -45818139#2 -45818139#0 356331769#0 356331769#1 356331768"/>
    </vehicle>
    <vehicle id="flow_356331765_0.16" depart="1920.00">
        <route edges="356331765 45818139#0 45818139#1 45818139#3 -45818139#4 -45818139#2 -45818139#0 356331769#0 356331769#1 356331768"/>
    </vehicle>
    <vehicle id="flow_172790916#1_0.25" depart="1956.53">
        <route edges="172790916#1 172790916#2 356331770#0 356331770#1 -356331770#2 -356331770#0 -172790916#2 -172790916#1"/>
    </vehicle>
    <vehicle id="flow_172790916#1_0.26" depart="2034.79">
        <route edges="172790916#1 172790916#2 356331770#0 356331770#1 -45818139#4 -45818139#2 -45818139#0 356331769#0 356331769#1 356331768"/>
    </vehicle>
    <vehicle id="flow_356331765_0.17" depart="2040.00">
        <route edges="356331765 45818139#0 45818139#1 45818139#3 -356331770#2 -356331770#0 -172790916#2 -172790916#1"/>
    </vehicle>
    <vehicle id="flow_172790916#1_0.27" depart="2113.05">
        <route edges="172790916#1 172790916#2 356331770#0 356331770#1 24827849#2 24827849#5 24827849#6 24827849#7 -24827849#7 -24827849#6 -24827849#5 -24827849#4 -356331770#2 -356331770#0 -172790916#2 -172790916#1"/>
    </vehicle>
    <vehicle id="flow_356331765_0.18" depart="2160.00">
        <route edges="356331765 45818139#0 45818139#1 45818139#3 24827849#2 24827849#5 24827849#6 24827849#7 24827849#9 -24827848 -24827849#7 -24827849#6 -24827849#5 -24827849#4 -45818139#4 -45818139#2 -45818139#0 356331769#0 356331769#1 356331768"/>
    </vehicle>
    <vehicle id="flow_172790916#1_0.28" depart="2191.31">
        <route edges="172790916#1 172790916#2 356331770#0 356331770#1 -45818139#4 -45818139#2 -45818139#0 356331769#0 356331769#1 356331768"/>
    </vehicle>
    <vehicle id="flow_172790916#1_0.29" depart="2269.57">
        <route edges="172790916#1 172790916#2 356331770#0 356331770#1 -45818139#4 -45818139#2 -45818139#0 356331769#0 356331769#1 356331768"/>
    </vehicle>
    <vehicle id="flow_356331765_0.19" depart="2280.00">
        <route edges="356331765 45818139#0 45818139#1 45818139#3 -356331770#2 -356331770#0 -172790916#2 -172790916#1"/>
    </vehicle>
    <vehicle id="flow_172790916#1_0.30" depart="2347.83">
        <route edges="172790916#1 172790916#2 356331770#0 356331770#1 -45818139#4 -45818139#2 -45818139#0 356331769#0 356331769#1 356331768"/>
    </vehicle>
    <vehicle id="flow_23459720#1_0.4" depart="2400.00">
        <route edges="23459720#1 362987285 -362987285 -23459720#1"/>
    </vehicle>
    <vehicle id="flow_356331765_0.20" depart="2400.00">
        <route edges="356331765 45818139#0 45818139#1 45818139#3 -678630296#1 -834337140#1 834337140#1 678630296#0 24827849#2 24827849#5 24827849#6 24827849#7 24827849#9 -362987285 -23459720#1"/>
    </vehicle>
    <vehicle id="flow_172790916#1_0.31" depart="2426.09">
        <route edges="172790916#1 172790916#2 356331770#0 356331770#1 -45818139#4 -45818139#2 -45818139#0 356331769#0 356331769#1 356331768"/>
    </vehicle>
    <vehicle id="flow_172790916#1_0.32" depart="2504.35">
        <route edges="172790916#1 172790916#2 356331770#0 356331770#1 -356331770#2 -356331770#0 -172790916#2 -172790916#1"/>
    </vehicle>
    <vehicle id="flow_356331765_0.21" depart="2520.00">
        <route edges="356331765 45818139#0 45818139#1 45818139#3 -356331770#2 -356331770#0 -172790916#2 -172790916#1"/>
    </vehicle>
    <vehicle id="flow_172790916#1_0.33" depart="2582.61">
        <route edges="172790916#1 172790916#2 356331770#0 356331770#1 -678630296#1 -834337140#1 -154244700#17 -154244700#16 -154244700#15 -154244700#14 -154244700#12 -154244700#11 -154244700#8 -154244700#7 -154244700#6 -154244700#5"/>
    </vehicle>
    <vehicle id="flow_356331765_0.22" depart="2640.00">
        <route edges="356331765 45818139#0 45818139#1 45818139#3 24827849#2 24827849#5 24827849#6 24827849#7 24827849#9 -362987285 -23459720#1"/>
    </vehicle>
    <vehicle id="flow_172790916#1_0.34" depart="2660.87">
        <route edges="172790916#1 172790916#2 356331770#0 356331770#1 24827849#2 24827849#5 24827849#6 24827849#7 -24827849#7 -24827849#6 -24827849#5 -24827849#4 -356331770#2 -356331770#0 -172790916#2 -172790916#1"/>
    </vehicle>
    <vehicle id="flow_154244700#5_0.3" depart="2700.00">
        <route edges="154244700#5 154244700#6 154244700#7 154244700#8 154244700#11 154244700#12 154244700#14 154244700#15 154244700#16 154244700#17 834337140#1 678630296#0 -45818139#4 -45818139#2 -45818139#0 356331769#0 356331769#1 356331768"/>
    </vehicle>
    <vehicle id="flow_172790916#1_0.35" depart="2739.14">
        <route edges="172790916#1 172790916#2 356331770#0 356331770#1 24827849#2 24827849#5 24827849#6 24827849#7 -24827849#7 -24827849#6 -24827849#5 -24827849#4 -356331770#2 -356331770#0 -172790916#2 -172790916#1"/>
    </vehicle>
    <vehicle id="flow_356331765_0.23" depart="2760.00">
        <route edges="356331765 45818139#0 45818139#1 45818139#3 24827849#2 24827849#5 24827849#6 24827849#7 -24827849#7 -24827849#6 -24827849#5 -24827849#4 -678630296#1 -834337140#1 834337140#1 678630296#0 -356331770#2 -356331770#0 -172790916#2 -172790916#1"/>
    </vehicle>
    <vehicle id="flow_172790916#1_0.36" depart="2817.40">
        <route edges="172790916#1 172790916#2 356331770#0 356331770#1 -45818139#4 -45818139#2 -45818139#0 356331769#0 356331769#1 356331768"/>
    </vehicle>
    <vehicle id="flow_356331765_0.24" depart="2880.00">
        <route edges="356331765 45818139#0 45818139#1 45818139#3 -678630296#1 -834337140#1 834337140#1 678630296#0 -356331770#2 -356331770#0 -172790916#2 -172790916#1"/>
    </vehicle>
    <vehicle id="flow_172790916#1_0.37" depart="2895.66">
        <route edges="172790916#1 172790916#2 356331770#0 356331770#1 -356331770#2 -356331770#0 -172790916#2 -172790916#1"/>
    </vehicle>
    <vehicle id="flow_172790916#1_0.38" depart="2973.92">
        <route edges="172790916#1 172790916#2 356331770#0 356331770#1 -678630296#1 -834337140#1 -154244700#17 -154244700#16 -154244700#15 -154244700#14 -154244700#12 -154244700#11 154244700#11 154244700#12 154244700#14 154244700#15 154244700#16 154244700#17 834337140#1 678630296#0 -356331770#2 -356331770#0 -172790916#2 -172790916#1"/>
    </vehicle>
    <vehicle id="flow_23459720#1_0.5" depart="3000.00">
        <route edges="23459720#1 362987285 -24827848 -24827849#7 -24827849#6 -24827849#5 -24827849#4 -356331770#2 -356331770#0 -172790916#2 -172790916#1"/>
    </vehicle>
    <vehicle id="flow_356331765_0.25" depart="3000.00">
        <route edges="356331765 45818139#0 45818139#1 45818139#3 -356331770#2 -356331770#0 -172790916#2 -172790916#1"/>
    </vehicle>
    <vehicle id="flow_172790916#1_0.39" depart="3052.18">
        <route edges="172790916#1 172790916#2 356331770#0 356331770#1 24827849#2 24827849#5 24827849#6 24827849#7 -24827849#7 -24827849#6 -24827849#5 -24827849#4 -678630296#1 -834337140#1 834337140#1 678630296#0 -45818139#4 -45818139#2 -45818139#0 356331769#0 356331769#1 356331768"/>
    </vehicle>
    <vehicle id="flow_356331765_0.26" depart="3120.00">
        <route edges="356331765 45818139#0 45818139#1 45818139#3 -356331770#2 -356331770#0 -172790916#2 -172790916#1"/>
    </vehicle>
    <vehicle id="flow_172790916#1_0.40" depart="3130.44">
        <route edges="172790916#1 172790916#2 356331770#0 356331770#1 -45818139#4 -45818139#2 -45818139#0 356331769#0 356331769#1 356331768"/>
    </vehicle>
    <vehicle id="flow_172790916#1_0.41" depart="3208.70">
        <route edges="172790916#1 172790916#2 356331770#0 356331770#1 -45818139#4 -45818139#2 -45818139#0 356331769#0 356331769#1 356331768"/>
    </vehicle>
    <vehicle id="flow_356331765_0.27" depart="3240.00">
        <route edges="356331765 45818139#0 45818139#1 45818139#3 -678630296#1 -834337140#1 -154244700#17 -154244700#16 -154244700#15 -154244700#14 -154244700#12 -154244700#11 -154244700#8 -154244700#7 -154244700#6 -154244700#5"/>
    </vehicle>
    <vehicle id="flow_172790916#1_0.42" depart="3286.96">
        <route edges="172790916#1 172790916#2 356331770#0 356331770#1 -678630296#1 -834337140#1 834337140#1 678630296#0 -356331770#2 -356331770#0 -172790916#2 -172790916#1"/>
    </vehicle>
    <vehicle id="flow_356331765_0.28" depart="3360.00">
        <route edges="356331765 45818139#0 45818139#1 45818139#3 -678630296#1 -834337140#1 834337140#1 678630296#0 -45818139#4 -45818139#2 -45818139#0 356331769#0 356331769#1 356331768"/>
    </vehicle>
    <vehicle id="flow_172790916#1_0.43" depart="3365.22">
        <route edges="172790916#1 172790916#2 356331770#0 356331770#1 -45818139#4 -45818139#2 -45818139#0 356331769#0 356331769#1 356331768"/>
    </vehicle>
    <vehicle id="flow_172790916#1_0.44" depart="3443.48">
        <route edges="172790916#1 172790916#2 356331770#0 356331770#1 -678630296#1 -834337140#1 834337140#1 678630296#0 -45818139#4 -45818139#2 -45818139#0 356331769#0 356331769#1 356331768"/>
    </vehicle>
    <vehicle id="flow_356331765_0.29" depart="3480.00">
        <route edges="356331765 45818139#0 45818139#1 45818139#3 -356331770#2 -356331770#0 -172790916#2 -172790916#1"/>
    </vehicle>
    <vehicle id="flow_172790916#1_0.45" depart="3521.75">
        <route edges="172790916#1 172790916#2 356331770#0 356331770#1 -45818139#4 -45818139#2 -45818139#0 356331769#0 356331769#1 356331768"/>
    </vehicle>
    <vehicle id="flow_154244700#5_1.0" depart="3600.00">
        <route edges="154244700#5 154244700#6 154244700#7 154244700#8 -154244700#8 -154244700#7 -154244700#6 -154244700#5"/>
    </vehicle>
    <vehicle id="flow_172790916#1_1.0" depart="3600.00">
        <route edges="172790916#1 172790916#2 356331770#0 356331770#1 -678630296#1 -834337140#1 834337140#1 678630296#0 -45818139#4 -45818139#2 -45818139#0 356331769#0 356331769#1 356331768"/>
    </vehicle>
    <vehicle id="flow_23459720#1_1.0" depart="3600.00">
        <route edges="23459720#1 362987285 -24827848 24827849#9 -362987285 -23459720#1"/>
    </vehicle>
    <vehicle id="flow_356331765_1.0" depart="3600.00">
        <route edges="356331765 45818139#0 45818139#1 45818139#3 -678630296#1 -834337140#1 834337140#1 678630296#0 24827849#2 24827849#5 24827849#6 24827849#7 24827849#9 -24827848 -24827849#7 -24827849#6 -24827849#5 -24827849#4 -356331770#2 -356331770#0 -172790916#2 -172790916#1"/>
    </vehicle>
    <vehicle id="flow_172790916#1_1.1" depart="3728.57">
        <route edges="172790916#1 172790916#2 356331770#0 356331770#1 -45818139#4 -45818139#2 -45818139#0 356331769#0 356331769#1 356331768"/>
    </vehicle>
    <vehicle id="flow_356331765_1.1" depart="3789.47">
        <route edges="356331765 45818139#0 45818139#1 45818139#3 -356331770#2 -356331770#0 -172790916#2 -172790916#1"/>
    </vehicle>
    <vehicle id="flow_172790916#1_1.2" depart="3857.14">
        <route edges="172790916#1 172790916#2 356331770#0 356331770#1 -678630296#1 -834337140#1 -154244700#17 -154244700#16 -154244700#15 -154244700#14 -154244700#12 -154244700#11 -154244700#8 -154244700#7 -154244700#6 -154244700#5"/>
    </vehicle>
    <vehicle id="flow_356331765_1.2" depart="3978.95">
        <route edges="356331765 45818139#0 45818139#1 45818139#3 -678630296#1 -834337140#1 -154244700#17 -154244700#16 -154244700#15 -154244700#14 -154244700#12 -154244700#11 154244700#11 154244700#12 154244700#14 154244700#15 154244700#16 154244700#17 834337140#1 678630296#0 -45818139#4 -45818139#2 -45818139#0 356331769#0 356331769#1 356331768"/>
    </vehicle>
    <vehicle id="flow_172790916#1_1.3" depart="3985.71">
        <route edges="172790916#1 172790916#2 356331770#0 356331770#1 -356331770#2 -356331770#0 -172790916#2 -172790916#1"/>
    </vehicle>
    <vehicle id="flow_172790916#1_1.4" depart="4114.28">
        <route edges="172790916#1 172790916#2 356331770#0 356331770#1 -45818139#4 -45818139#2 -45818139#0 356331769#0 356331769#1 356331768"/>
    </vehicle>
    <vehicle id="flow_356331765_1.3" depart="4168.42">
        <route edges="356331765 45818139#0 45818139#1 45818139#3 -678630296#1 -834337140#1 834337140#1 678630296#0 -45818139#4 -45818139#2 -45818139#0 356331769#0 356331769#1 356331768"/>
    </vehicle>
    <vehicle id="flow_172790916#1_1.5" depart="4242.86">
        <route edges="172790916#1 172790916#2 356331770#0 356331770#1 -45818139#4 -45818139#2 -45818139#0 356331769#0 356331769#1 356331768"/>
    </vehicle>
    <vehicle id="flow_356331765_1.4" depart="4357.90">
        <route edges="356331765 45818139#0 45818139#1 45818139#3 24827849#2 24827849#5 24827849#6 24827849#7 24827849#9 -362987285 -23459720#1"/>
    </vehicle>
    <vehicle id="flow_172790916#1_1.6" depart="4371.43">
        <route edges="172790916#1 172790916#2 356331770#0 356331770#1 24827849#2 24827849#5 24827849#6 24827849#7 24827849#9 -24827848 -24827849#7 -24827849#6 -24827849#5 -24827849#4 -45818139#4 -45818139#2 -45818139#0 356331769#0 356331769#1 356331768"/>
    </vehicle>
    <vehicle id="flow_172790916#1_1.7" depart="4500.00">
        <route edges="172790916#1 172790916#2 356331770#0 356331770#1 -45818139#4 -45818139#2 -45818139#0 356331769#0 356331769#1 356331768"/>
    </vehicle>
    <vehicle id="flow_356331765_1.5" depart="4547.37">
        <route edges="356331765 45818139#0 45818139#1 45818139#3 -678630296#1 -834337140#1 834337140#1 678630296#0 24827849#2 24827849#5 24827849#6 24827849#7 -24827849#7 -24827849#6 -24827849#5 -24827849#4 -356331770#2 -356331770#0 -172790916#2 -172790916#1"/>
    </vehicle>
    <vehicle id="flow_172790916#1_1.8" depart="4628.57">
        <route edges="172790916#1 172790916#2 356331770#0 356331770#1 24827849#2 24827849#5 24827849#6 24827849#7 24827849#9 -362987285 -23459720#1"/>
    </vehicle>
    <vehicle id="flow_356331765_1.6" depart="4736.84">
        <route edges="356331765 45818139#0 45818139#1 45818139#3 -45818139#4 -45818139#2 -45818139#0 356331769#0 356331769#1 356331768"/>
    </vehicle>
    <vehicle id="flow_172790916#1_1.9" depart="4757.14">
        <route edges="172790916#1 172790916#2 356331770#0 356331770#1 -45818139#4 -45818139#2 -45818139#0 356331769#0 356331769#1 356331768"/>
    </vehicle>
    <vehicle id="flow_154244700#5_1.1" depart="4800.00">
        <route edges="154244700#5 154244700#6 154244700#7 154244700#8 154244700#11 154244700#12 154244700#14 154244700#15 154244700#16 154244700#17 -154244700#17 -154244700#16 -154244700#15 -154244700#14 -154244700#12 -154244700#11 -154244700#8 -154244700#7 -154244700#6 -154244700#5"/>
    </vehicle>
    <vehicle id="flow_23459720#1_1.1" depart="4800.00">
        <route edges="23459720#1 362987285 -362987285 -23459720#1"/>
    </vehicle>
    <vehicle id="flow_172790916#1_1.10" depart="4885.71">
        <route edges="172790916#1 172790916#2 356331770#0 356331770#1 -356331770#2 -356331770#0 -172790916#2 -172790916#1"/>
    </vehicle>
    <vehicle id="flow_356331765_1.7" depart="4926.32">
        <route edges="356331765 45818139#0 45818139#1 45818139#3 -356331770#2 -356331770#0 -172790916#2 -172790916#1"/>
    </vehicle>
    <vehicle id="flow_172790916#1_1.11" depart="5014.28">
        <route edges="172790916#1 172790916#2 356331770#0 356331770#1 -678630296#1 -834337140#1 -154244700#17 -154244700#16 -154244700#15 -154244700#14 -154244700#12 -154244700#11 -154244700#8 -154244700#7 -154244700#6 -154244700#5"/>
    </vehicle>
    <vehicle id="flow_356331765_1.8" depart="5115.79">
        <route edges="356331765 45818139#0 45818139#1 45818139#3 24827849#2 24827849#5 24827849#6 24827849#7 24827849#9 -24827848 -24827849#7 -24827849#6 -24827849#5 -24827849#4 -678630296#1 -834337140#1 834337140#1 678630296#0 -45818139#4 -45818139#2 -45818139#0 356331769#0 356331769#1 356331768"/>
    </vehicle>
    <vehicle id="flow_172790916#1_1.12" depart="5142.85">
        <route edges="172790916#1 172790916#2 356331770#0 356331770#1 24827849#2 24827849#5 24827849#6 24827849#7 -24827849#7 -24827849#6 -24827849#5 -24827849#4 -678630296#1 -834337140#1 -154244700#17 -154244700#16 -154244700#15 -154244700#14 -154244700#12 -154244700#11 -154244700#8 -154244700#7 -154244700#6 -154244700#5"/>
    </vehicle>
    <vehicle id="flow_172790916#1_1.13" depart="5271.42">
        <route edges="172790916#1 172790916#2 356331770#0 356331770#1 24827849#2 24827849#5 24827849#6 24827849#7 -24827849#7 -24827849#6 -24827849#5 -24827849#4 -678630296#1 -834337140#1 -154244700#17 -154244700#16 -154244700#15 -154244700#14 -154244700#12 -154244700#11 -154244700#8 -154244700#7 -154244700#6 -154244700#5"/>
    </vehicle>
    <vehicle id="flow_356331765_1.9" depart="5305.27">
        <route edges="356331765 45818139#0 45818139#1 45818139#3 -678630296#1 -834337140#1 -154244700#17 -154244700#16 -154244700#15 -154244700#14 -154244700#12 -154244700#11 -154244700#8 -154244700#7 -154244700#6 -154244700#5"/>
    </vehicle>