<?xml version="1.0" encoding="UTF-8"?>

<!-- generated on 2025-12-30 22:07:48 by Eclipse SUMO jtrrouter Version 1.24.0
<jtrrouterConfiguration xmlns:xsi="http://www.w3.org/2001/XMLSchema-instance" xsi:noNamespaceSchemaLocation="http://sumo.dlr.de/xsd/jtrrouterConfiguration.xsd">

    <input>
        <net-file value="szczecin_small.net.xml"/>
        <route-files value="flows_0.3.xml"/>
    </input>

    <output>
        <output-file value="traffic_0.3.rou.xml"/>
    </output>

    <processing>
        <accept-all-destinations value="true"/>
    </processing>

</jtrrouterConfiguration>
-->

<routes xmlns:xsi="http://www.w3.org/2001/XMLSchema-instance" xsi:noNamespaceSchemaLocation="http://sumo.dlr.de/xsd/routes_file.xsd">
    <vehicle id="flow_154244700#5_0.0" depart="0.00">
        <route edges="154244700#5 154244700#6 154244700#7 154244700#8 154244700#11 154244700#12 154244700#14 154244700#15 154244700#16 154244700#17 -154244700#17 -154244700#16 -154244700#15 -154244700#14 -154244700#12 -154244700#11 -154244700#8 -154244700#7 -154244700#6 -154244700#5"/>
    </vehicle>
    <vehicle id="flow_172790916#1_0.0" depart="0.00">
        <route edges="172790916#1 172790916#2 356331770#0 356331770#1 -45818139#4 -45818139#2 -45818139#0 356331769#0 356331769#1 356331768"/>
    </vehicle>
    <vehicle id="flow_23459720#1_0.0" depart="0.00">
        <route edges="23459720#1 362987285 -24827848 -24827849#7 -24827849#6 -24827849#5 -24827849#4 24827849#2 24827849#5 24827849#6 24827849#7 24827849#9 -362987285 -23459720#1"/>
    </vehicle>
    <vehicle id="flow_356331765_0.0" depart="0.00">
        <route edges="356331765 45818139#0 45818139#1 45818139#3 -678630296#1 -834337140#1 -154244700#17 -154244700#16 -154244700#15 -154244700#14 -154244700#12 -154244700#11 154244700#11 154244700#12 154244700#14 154244700#15 154244700#16 154244700#17 834337140#1 678630296#0 -356331770#2 -356331770#0 -172790916#2 -172790916#1"/>
    </vehicle>
    <vehicle id="flow_172790916#1_0.1" depart="105.88">
        <route edges="172790916#1 172790916#2 356331770#0 356331770#1 24827849#2 24827849#5 24827849#6 24827849#7 24827849#9 -362987285 -23459720#1"/>
    </vehicle>
    <vehicle id="flow_356331765_0.1" depart="156.52">
        <route edges="356331765 45818139#0 45818139#1 45818139#3 -678630296#1 -834337140#1 -154244700#17 -154244700#16 -154244700#15 -154244700#14 -154244700#12 -154244700#11 -154244700#8 -154244700#7 -154244700#6 -154244700#5"/>
    </vehicle>
    <vehicle id="flow_172790916#1_0.2" depart="211.76">
        <route edges="172790916#1 172790916#2 356331770#0 356331770#1 24827849#2 24827849#5 24827849#6 24827849#7 -24827849#7 -24827849#6 -24827849#5 -24827849#4 -356331770#2 -356331770#0 -172790916#2 -172790916#1"/>
    </vehicle>
    <vehicle id="flow_356331765_0.2" depart="313.04">
        <route edges="356331765 45818139#0 45818139#1 45818139#3 -356331770#2 -356331770#0 -172790916#2 -172790916#1"/>
    </vehicle>
    <vehicle id="flow_172790916#1_0.3" depart="317.65">
        <route edges="172790916#1 172790916#2 356331770#0 356331770#1 -678630296#1 -834337140#1 834337140#1 678630296#0 -45818139#4 -45818139#2 -45818139#0 356331769#0 356331769#1 356331768"/>
    </vehicle>
    <vehicle id="flow_172790916#1_0.4" depart="423.53">
        <route edges="172790916#1 172790916#2 356331770#0 356331770#1 -356331770#2 -356331770#0 -172790916#2 -172790916#1"/>
    </vehicle>
    <vehicle id="flow_356331765_0.3" depart="469.57">
        <route edges="356331765 45818139#0 45818139#1 45818139#3 24827849#2 24827849#5 24827849#6 24827849#7 -24827849#7 -24827849#6 -24827849#5 -24827849#4 -678630296#1 -834337140#1 834337140#1 678630296#0 -45818139#4 -45818139#2 -45818139#0 356331769#0 356331769#1 356331768"/>
    </vehicle>
    <vehicle id="flow_172790916#1_0.5" depart="529.41">
        <route edges="172790916#1 172790916#2 356331770#0 356331770#1 -356331770#2 -356331770#0 -172790916#2 -172790916#1"/>
    </vehicle>
    <vehicle id="flow_356331765_0.4" depart="626.09">
        <route edges="356331765 45818139#0 45818139#1 45818139#3 24827849#2 24827849#5 24827849#6 24827849#7 -24827849#7 -24827849#6 -24827849#5 -24827849#4 -678630296#1 -834337140#1 -154244700#17 -154244700#16 -154244700#15 -154244700#14 -154244700#12 -154244700#11 154244700#11 154244700#12 154244700#14 154244700#15 154244700#16 154244700#17 834337140#1 678630296#0 -356331770#2 -356331770#0 -172790916#2 -172790916#1"/>
    </vehicle>
    <vehicle id="flow_172790916#1_0.6" depart="635.29">
        <route edges="172790916#1 172790916#2 356331770#0 356331770#1 24827849#2 24827849#5 24827849#6 24827849#7 -24827849#7 -24827849#6 -24827849#5 -24827849#4 -45818139#4 -45818139#2 -45818139#0 356331769#0 356331769#1 356331768"/>
    </vehicle>
    <vehicle id="flow_172790916#1_0.7" depart="741.17">
        <route edges="172790916#1 172790916#2 356331770#0 356331770#1 -678630296#1 -834337140#1 -154244700#17 -154244700#16 -154244700#15 -154244700#14 -154244700#12 -154244700#11 -154244700#8 -154244700#7 -154244700#6 -154244700#5"/>
    </vehicle>
    <vehicle id="flow_356331765_0.5" depart="782.61">
        <route edges="356331765 45818139#0 45818139#1 45818139#3 -45818139#4 -45818139#2 -45818139#0 356331769#0 356331769#1 356331768"/>
    </vehicle>
    <vehicle id="flow_172790916#1_0.8" depart="847.06">
        <route edges="172790916#1 172790916#2 356331770#0 356331770#1 -45818139#4 -45818139#2 -45818139#0 356331769#0 356331769#1 356331768"/>
    </vehicle>
    <vehicle id="flow_23459720#1_0.1" depart="900.00">
        <route edges="23459720#1 362987285 -24827848 24827849#9 -362987285 -23459720#1"/>
    </vehicle>
    <vehicle id="flow_356331765_0.6" depart="939.13">
        <route edges="356331765 45818139#0 45818139#1 45818139#3 -356331770#2 -356331770#0 -172790916#2 -172790916#1"/>
    </vehicle>
    <vehicle id="flow_172790916#1_0.9" depart="952.94">
        <route edges="172790916#1 172790916#2 356331770#0 356331770#1 -45818139#4 -45818139#2 -45818139#0 356331769#0 356331769#1 356331768"/>
    </vehicle>
    <vehicle id="flow_172790916#1_0.10" depart="1058.82">
        <route edges="172790916#1 172790916#2 356331770#0 356331770#1 24827849#2 24827849#5 24827849#6 24827849#7 -24827849#7 -24827849#6 -24827849#5 -24827849#4 -356331770#2 -356331770#0 -172790916#2 -172790916#1"/>
    </vehicle>
    <vehicle id="flow_356331765_0.7" depart="1095.65">
        <route edges="356331765 45818139#0 45818139#1 45818139#3 24827849#2 24827849#5 24827849#6 24827849#7 24827849#9 -362987285 -23459720#1"/>
    </vehicle>
    <vehicle id="flow_172790916#1_0.11" depart="1164.70">
        <route edges="172790916#1 172790916#2 356331770#0 356331770#1 -45818139#4 -45818139#2 -45818139#0 356331769#0 356331769#1 356331768"/>
    </vehicle>
    <vehicle id="flow_154244700#5_0.1" depart="1200.00">
        <route edges="154244700#5 154244700#6 154244700#7 154244700#8 154244700#11 154244700#12 154244700#14 154244700#15 154244700#16 154244700#17 834337140#1 678630296#0 -678630296#1 -834337140#1 -154244700#17 -154244700#16 -154244700#15 -154244700#14 -154244700#12 -154244700#11 -154244700#8 -154244700#7 -154244700#6 -154244700#5"/>
    </vehicle>
    <vehicle id="flow_356331765_0.8" depart="1252.18">
        <route edges="356331765 45818139#0 45818139#1 45818139#3 24827849#2 24827849#5 24827849#6 24827849#7 -24827849#7 -24827849#6 -24827849#5 -24827849#4 -678630296#1 -834337140#1 -154244700#17 -154244700#16 -154244700#15 -154244700#14 -154244700#12 -154244700#11 -154244700#8 -154244700#7 -154244700#6 -154244700#5"/>
    </vehicle>
    <vehicle id="flow_172790916#1_0.12" depart="1270.58">
        <route edges="172790916#1 172790916#2 356331770#0 356331770#1 -45818139#4 -45818139#2 -45818139#0 356331769#0 356331769#1 356331768"/>
    </vehicle>
    <vehicle id="flow_172790916#1_0.13" depart="1376.47">
        <route edges="172790916#1 172790916#2 356331770#0 356331770#1 -356331770#2 -356331770#0 -172790916#2 -172790916#1"/>
    </vehicle>
    <vehicle id="flow_356331765_0.9" depart="1408.70">
        <route edges="356331765 45818139#0 45818139#1 45818139#3 24827849#2 24827849#5 24827849#6 24827849#7 -24827849#7 -24827849#6 -24827849#5 -24827849#4 -678630296#1 -834337140#1 -154244700#17 -154244700#16 -154244700#15 -154244700#14 -154244700#12 -154244700#11 154244700#11 154244700#12 154244700#14 154244700#15 154244700#16 154244700#17 834337140#1 678630296#0 -45818139#4 -45818139#2 -45818139#0 356331769#0 356331769#1 356331768"/>
    </vehicle>
    <vehicle id="flow_172790916#1_0.14" depart="1482.35">
        <route edges="172790916#1 172790916#2 356331770#0 356331770#1 -356331770#2 -356331770#0 -172790916#2 -172790916#1"/>
    </vehicle>
    <vehicle id="flow_356331765_0.10" depart="1565.22">
        <route edges="356331765 45818139#0 45818139#1 45818139#3 24827849#2 24827849#5 24827849#6 24827849#7 -24827849#7 -24827849#6 -24827849#5 -24827849#4 -45818139#4 -45818139#2 -45818139#0 356331769#0 356331769#1 356331768"/>
    </vehicle>
    <vehicle id="flow_172790916#1_0.15" depart="1588.23">
        <route edges="172790916#1 172790916#2 356331770#0 356331770#1 -356331770#2 -356331770#0 -172790916#2 -172790916#1"/>
    </vehicle>
    <vehicle id="flow_172790916#1_0.16" depart="1694.11">
        <route edges="172790916#1 172790916#2 356331770#0 356331770#1 24827849#2 24827849#5 24827849#6 24827849#7 -24827849#7 -24827849#6 -24827849#5 -24827849#4 -678630296#1 -834337140#1 -154244700#17 -154244700#16 -154244700#15 -154244700#14 -154244700#12 -154244700#11 154244700#11 154244700#12 154244700#14 154244700#15 154244700#16 154244700#17 834337140#1 678630296#0 -45818139#4 -45818139#2 -45818139#0 356331769#0 356331769#1 356331768"/>
    </vehicle>
    <vehicle id="flow_356331765_0.11" depart="1721.74">
        <route edges="356331765 45818139#0 45818139#1 45818139#3 24827849#2 24827849#5 24827849#6 24827849#7 -24827849#7 -24827849#6 -24827849#5 -24827849#4 -45818139#4 -45818139#2 -45818139#0 356331769#0 356331769#1 356331768"/>
    </vehicle>
    <vehicle id="flow_172790916#1_0.17" depart="1799.99">
        <route edges="172790916#1 172790916#2 356331770#0 356331770#1 -678630296#1 -834337140#1 834337140#1 678630296#0 24827849#2 24827849#5 24827849#6 24827849#7 -24827849#7 -24827849#6 -24827849#5 -24827849#4 -356331770#2 -356331770#0 -172790916#2 -172790916#1"/>
    </vehicle>
    <vehicle id="flow_23459720#1_0.2" depart="1800.00">
        <route edges="23459720#1 362987285 -24827848 24827849#9 -362987285 -23459720#1"/>
    </vehicle>
    <vehicle id="flow_356331765_0.12" depart="1878.26">
        <route edges="356331765 45818139#0 45818139#1 45818139#3 24827849#2 24827849#5 24827849#6 24827849#7 24827849#9 -24827848 -24827849#7 -24827849#6 -24827849#5 -24827849#4 -45818139#4 -45818139#2 -45818139#0 356331769#0 356331769#1 356331768"/>
    </vehicle>
    <vehicle id="flow_172790916#1_0.18" depart="1905.88">
        <route edges="172790916#1 172790916#2 356331770#0 356331770#1 -678630296#1 -834337140#1 -154244700#17 -154244700#16 -154244700#15 -154244700#14 -154244700#12 -154244700#11 -154244700#8 -154244700#7 -154244700#6 -154244700#5"/>
    </vehicle>
    <vehicle id="flow_172790916#1_0.19" depart="2011.76">
        <route edges="172790916#1 172790916#2 356331770#0 356331770#1 -45818139#4 -45818139#2 -45818139#0 356331769#0 356331769#1 356331768"/>
    </vehicle>
    <vehicle id="flow_356331765_0.13" depart="2034.79">
        <route edges="356331765 45818139#0 45818139#1 45818139#3 24827849#2 24827849#5 24827849#6 24827849#7 -24827849#7 -24827849#6 -24827849#5 -24827849#4 -678630296#1 -834337140#1 -154244700#17 -154244700#16 -154244700#15 -154244700#14 -154244700#12 -154244700#11 -154244700#8 -154244700#7 -154244700#6 -154244700#5"/>
    </vehicle>
    <vehicle id="flow_172790916#1_0.20" depart="2117.64">
        <route edges="172790916#1 172790916#2 356331770#0 356331770#1 -678630296#1 -834337140#1 834337140#1 678630296#0 -356331770#2 -356331770#0 -172790916#2 -172790916#1"/>
    </vehicle>
    <vehicle id="flow_356331765_0.14" depart="2191.31">
        <route edges="356331765 45818139#0 45818139#1 45818139#3 -356331770#2 -356331770#0 -172790916#2 -172790916#1"/>
    </vehicle>
    <vehicle id="flow_172790916#1_0.21" depart="2223.52">
        <route edges="172790916#1 172790916#2 356331770#0 356331770#1 -356331770#2 -356331770#0 -172790916#2 -172790916#1"/>
    </vehicle>
    <vehicle id="flow_172790916#1_0.22" depart="2329.40">
        <route edges="172790916#1 172790916#2 356331770#0 356331770#1 -45818139#4 -45818139#2 -45818139#0 356331769#0 356331769#1 356331768"/>
    </vehicle>
    <vehicle id="flow_356331765_0.15" depart="2347.83">
        <route edges="356331765 45818139#0 45818139#1 45818139#3 -45818139#4 -45818139#2 -45818139#0 356331769#0 356331769#1 356331768"/>
    </vehicle>
    <vehicle id="flow_154244700#5_0.2" depart="2400.00">
        <route edges="154244700#5 154244700#6 154244700#7 154244700#8 154244700#11 154244700#12 154244700#14 154244700#15 154244700#16 154244700#17 834337140#1 678630296#0 -678630296#1 -834337140#1 -154244700#17 -154244700#16 -154244700#15 -154244700#14 -154244700#12 -154244700#11 -154244700#8 -154244700#7 -154244700#6 -154244700#5"/>
    </vehicle>
    <vehicle id="flow_172790916#1_0.23" depart="2435.29">
        <route edges="172790916#1 172790916#2 356331770#0 356331770#1 -678630296#1 -834337140#1 834337140#1 678630296#0 -356331770#2 -356331770#0 -172790916#2 -172790916#1"/>
    </vehicle>
    <vehicle id="flow_356331765_0.16" depart="2504.35">
        <route edges="356331765 45818139#0 45818139#1 45818139#3 -356331770#2 -356331770#0 -172790916#2 -172790916#1"/>
    </vehicle>
    <vehicle id="flow_172790916#1_0.24" depart="2541.17">
        <route edges="172790916#1 172790916#2 356331770#0 356331770#1 -45818139#4 -45818139#2 -45818139#0 356331769#0 356331769#1 356331768"/>
    </vehicle>
    <vehicle id="flow_172790916#1_0.25" depart="2647.05">
        <route edges="172790916#1 172790916#2 356331770#0 356331770#1 -45818139#4 -45818139#2 -45818139#0 356331769#0 356331769#1 356331768"/>
    </vehicle>
    <vehicle id="flow_356331765_0.17" depart="2660.87">
        <route edges="356331765 45818139#0 45818139#1 45818139#3 24827849#2 24827849#5 24827849#6 24827849#7 -24827849#7 -24827849#6 -24827849#5 -24827849#4 -45818139#4 -45818139#2 -45818139#0 356331769#0 356331769#1 356331768"/>
    </vehicle>
    <vehicle id="flow_23459720#1_0.3" depart="2700.00">
        <route edges="23459720#1 362987285 -24827848 -24827849#7 -24827849#6 -24827849#5 -24827849#4 24827849#2 24827849#5 24827849#6 24827849#7 24827849#9 -362987285 -23459720#1"/>
    </vehicle>
    <vehicle id="flow_172790916#1_0.26" depart="2752.93">
        <route edges="172790916#1 172790916#2 356331770#0 356331770#1 -678630296#1 -834337140#1 -154244700#17 -154244700#16 -154244700#15 -154244700#14 -154244700#12 -154244700#11 -154244700#8 -154244700#7 -154244700#6 -154244700#5"/>
    </vehicle>
    <vehicle id="flow_356331765_0.18" depart="2817.40">
        <route edges="356331765 45818139#0 45818139#1 45818139#3 24827849#2 24827849#5 24827849#6 24827849#7 -24827849#7 -24827849#6 -24827849#5 -24827849#4 -45818139#4 -45818139#2 -45818139#0 356331769#0 356331769#1 356331768"/>
    </vehicle>
    <vehicle id="flow_172790916#1_0.27" depart="2858.81">
        <route edges="172790916#1 172790916#2 356331770#0 356331770#1 -356331770#2 -356331770#0 -172790916#2 -172790916#1"/>
    </vehicle>
    <vehicle id="flow_172790916#1_0.28" depart="2964.70">
        <route edges="172790916#1 172790916#2 356331770#0 356331770#1 24827849#2 24827849#5 24827849#6 24827849#7 -24827849#7 -24827849#6 -24827849#5 -24827849#4 -678630296#1 -834337140#1 -154244700#17 -154244700#16 -154244700#15 -154244700#14 -154244700#12 -154244700#11 154244700#11 154244700#12 154244700#14 154244700#15 154244700#16 154244700#17 834337140#1 678630296#0 -356331770#2 -356331770#0 -172790916#2 -172790916#1"/>
    </vehicle>
    <vehicle id="flow_356331765_0.19" depart="2973.92">
        <route edges="356331765 45818139#0 45818139#1 45818139#3 24827849#2 24827849#5 24827849#6 24827849#7 -24827849#7 -24827849#6 -24827849#5 -24827849#4 -678630296#1 -834337140#1 834337140#1 678630296#0 -45818139#4 -45818139#2 -45818139#0 356331769#0 356331769#1 356331768"/>
    </vehicle>
    <vehicle id="flow_172790916#1_0.29" depart="3070.58">
        <route edges="172790916#1 172790916#2 356331770#0 356331770#1 -678630296#1 -834337140#1 -154244700#17 -154244700#16 -154244700#15 -154244700#14 -154244700#12 -154244700#11 154244700#11 154244700#12 154244700#14 154244700#15 154244700#16 154244700#17 834337140#1 678630296#0 24827849#2 24827849#5 24827849#6 24827849#7 24827849#9 -362987285 -23459720#1"/>
    </vehicle>
    <vehicle id="flow_356331765_0.20" depart="3130.44">
        <route edges="356331765 45818139#0 45818139#1 45818139#3 24827849#2 24827849#5 24827849#6 24827849#7 24827849#9 -24827848 -24827849#7 -24827849#6 -24827849#5 -24827849#4 -678630296#1 -834337140#1 834337140#1 678630296#0 -45818139#4 -45818139#2 -45818139#0 356331769#0 356331769#1 356331768"/>
    </vehicle>
    <vehicle id="flow_172790916#1_0.30" depart="3176.46">
        <route edges="172790916#1 172790916#2 356331770#0 356331770#1 24827849#2 24827849#5 24827849#6 24827849#7 24827849#9 -24827848 -24827849#7 -24827849#6 -24827849#5 -24827849#4 -356331770#2 -356331770#0 -172790916#2 -172790916#1"/>
    </vehicle>
    <vehicle id="flow_172790916#1_0.31" depart="3282.34">
        <route edges="172790916#1 172790916#2 356331770#0 356331770#1 -45818139#4 -45818139#2 -45818139#0 356331769#0 356331769#1 356331768"/>
    </vehicle>
    <vehicle id="flow_356331765_0.21" depart="3286.96">
        <route edges="356331765 45818139#0 45818139#1 45818139#3 24827849#2 24827849#5 24827849#6 24827849#7 -24827849#7 -24827849#6 -24827849#5 -24827849#4 -678630296#1 -834337140#1 834337140#1 678630296#0 -45818139#4 -45818139#2 -45818139#0 356331769#0 356331769#1 356331768"/>
    </vehicle>
    <vehicle id="flow_172790916#1_0.32" depart="3388.22">
        <route edges="172790916#1 172790916#2 356331770#0 356331770#1 -45818139#4 -45818139#2 -45818139#0 356331769#0 356331769#1 356331768"/>
    </vehicle>
    <vehicle id="flow_356331765_0.22" depart="3443.48">
        <route edges="356331765 45818139#0 45818139#1 45818139#3 24827849#2 24827849#5 24827849#6 24827849#7 24827849#9 -362987285 -23459720#1"/>
    </vehicle>
    <vehicle id="flow_172790916#1_0.33" depart="3494.11">
        <route edges="172790916#1 172790916#2 356331770#0 356331770#1 -45818139#4 -45818139#2 -45818139#0 356331769#0 356331769#1 356331768"/>
    </vehicle>
    <vehicle id="flow_172790916#1_0.34" depart="3599.99">
        <route edges="172790916#1 172790916#2 356331770#0 356331770#1 -45818139#4 -45818139#2 -45818139#0 356331769#0 356331769#1 356331768"/>
    </vehicle>
    <vehicle id="flow_154244700#5_1.0" depart="3600.00">
        <route edges="154244700#5 154244700#6 154244700#7 154244700#8 -154244700#8 -154244700#7 -154244700#6 -154244700#5"/>
    </vehicle>
    <vehicle id="flow_172790916#1_1.0" depart="3600.00">
        <route edges="172790916#1 172790916#2 356331770#0 356331770#1 24827849#2 24827849#5 24827849#6 24827849#7 -24827849#7 -24827849#6 -24827849#5 -24827849#4 -356331770#2 -356331770#0 -172790916#2 -172790916#1"/>
    </vehicle>
    <vehicle id="flow_23459720#1_1.0" depart="3600.00">
        <route edges="23459720#1 362987285 -362987285 -23459720#1"/>
    </vehicle>
    <vehicle id="flow_356331765_1.0" depart="3600.00">
        <route edges="356331765 45818139#0 45818139#1 45818139#3 24827849#2 24827849#5 24827849#6 24827849#7 24827849#9 -24827848 -24827849#7 -24827849#6 -24827849#5 -24827849#4 -678630296#1 -834337140#1 -154244700#17 -154244700#16 -154244700#15 -154244700#14 -154244700#12 -154244700#11 -154244700#8 -154244700#7 -154244700#6 -154244700#5"/>
    </vehicle>
    <vehicle id="flow_172790916#1_1.1" depart="3771.43">
        <route edges="172790916#1 172790916#2 356331770#0 356331770#1 -678630296#1 -834337140#1 834337140#1 678630296#0 -356331770#2 -356331770#0 -172790916#2 -172790916#1"/>
    </vehicle>
    <vehicle id="flow_356331765_1.1" depart="3857.14">
        <route edges="356331765 45818139#0 45818139#1 45818139#3 -678630296#1 -834337140#1 834337140#1 678630296#0 -356331770#2 -356331770#0 -172790916#2 -172790916#1"/>
    </vehicle>
    <vehicle id="flow_172790916#1_1.2" depart="3942.86">
        <route edges="172790916#1 172790916#2 356331770#0 356331770#1 -678630296#1 -834337140#1 -154244700#17 -154244700#16 -154244700#15 -154244700#14 -154244700#12 -154244700#11 -154244700#8 -154244700#7 -154244700#6 -154244700#5"/>
    </vehicle>
    <vehicle id="flow_356331765_1.2" depart="4114.29">
        <route edges="356331765 45818139#0 45818139#1 45818139#3 24827849#2 24827849#5 24827849#6 24827849#7 24827849#9 -362987285 -23459720#1"/>
    </vehicle>
    <vehicle id="flow_172790916#1_1.3" depart="4114.29">
        <route edges="172790916#1 172790916#2 356331770#0 356331770#1 -678630296#1 -834337140#1 834337140#1 678630296#0 -356331770#2 -356331770#0 -172790916#2 -172790916#1"/>
    </vehicle>
    <vehicle id="flow_172790916#1_1.4" depart="4285.72">
        <route edges="172790916#1 172790916#2 356331770#0 356331770#1 -45818139#4 -45818139#2 -45818139#0 356331769#0 356331769#1 356331768"/>
    </vehicle>
    <vehicle id="flow_356331765_1.3" depart="4371.43">
        <route edges="356331765 45818139#0 45818139#1 45818139#3 24827849#2 24827849#5 24827849#6 24827849#7 -24827849#7 -24827849#6 -24827849#5 -24827849#4 -678630296#1 -834337140#1 834337140#1 678630296#0 -356331770#2 -356331770#0 -172790916#2 -172790916#1"/>
    </vehicle>
    <vehicle id="flow_172790916#1_1.5" depart="4457.15">
        <route edges="172790916#1 172790916#2 356331770#0 356331770#1 -678630296#1 -834337140#1 834337140#1 678630296#0 24827849#2 24827849#5 24827849#6 24827849#7 -24827849#7 -24827849#6 -24827849#5 -24827849#4 -356331770#2 -356331770#0 -172790916#2 -172790916#1"/>
    </vehicle>
    <vehicle id="flow_356331765_1.4" depart="4628.57">
        <route edges="356331765 45818139#0 45818139#1 45818139#3 -356331770#2 -356331770#0 -172790916#2 -172790916#1"/>
    </vehicle>
    <vehicle id="flow_172790916#1_1.6" depart="4628.57">
        <route edges="172790916#1 172790916#2 356331770#0 356331770#1 -45818139#4 -45818139#2 -45818139#0 356331769#0 356331769#1 356331768"/>
    </vehicle>
    <vehicle id="flow_172790916#1_1.7" depart="4800.00">
        <route edges="172790916#1 172790916#2 356331770#0 356331770#1 -45818139#4 -45818139#2 -45818139#0 356331769#0 356331769#1 356331768"/>
    </vehicle>
    <vehicle id="flow_356331765_1.5" depart="4885.72">
        <route edges="356331765 45818139#0 45818139#1 45818139#3 -678630296#1 -834337140#1 834337140#1 678630296#0 -45818139#4 -45818139#2 -45818139#0 356331769#0 356331769#1 356331768"/>
    </vehicle>
    <vehicle id="flow_172790916#1_1.8" depart="4971.43">
        <route edges="172790916#1 172790916#2 356331770#0 356331770#1 24827849#2 24827849#5 24827849#6 24827849#7 -24827849#7 -24827849#6 -24827849#5 -24827849#4 -45818139#4 -45818139#2 -45818139#0 356331769#0 356331769#1 356331768"/>
    </vehicle>
    <vehicle id="flow_356331765_1.6" depart="5142.86">
        <route edges="356331765 45818139#0 45818139#1 45818139#3 -356331770#2 -356331770#0 -172790916#2 -172790916#1"/>
    </vehicle>
    <vehicle id="flow_172790916#1_1.9" depart="5142.86">
        <route edges="172790916#1 172790916#2 356331770#0 356331770#1 -678630296#1 -834337140#1 -154244700#17 -154244700#16 -154244700#15 -154244700#14 -154244700#12 -154244700#11 154244700#11 154244700#12 154244700#14 154244700#15 154244700#16 154244700#17 834337140#1 678630296#0 24827849#2 24827849#5 24827849#6 24827849#7 24827849#9 -362987285 -23459720#1"/>
    </vehicle>
    <vehicle id="flow_172790916#1_1.10" depart="5314.29">
        <route edges="172790916#1 172790916#2 356331770#0 356331770#1 -45818139#4 -45818139#2 -45818139#0 356331769#0 356331769#1 356331768"/>
    </vehicle>
    <vehicle id="flow_154244700#5_1.1" depart="5400.00">
        <route edges="154244700#5 154244700#6 154244700#7 154244700#8 154244700#11 154244700#12 154244700#14 154244700#15 154244700#16 154244700#17 834337140#1 678630296#0 -356331770#2 -356331770#0 -172790916#2 -172790916#1"/>
    </vehicle>
    <vehicle id="flow_23459720#1_1.1" depart="5400.00">
        <route edges="23459720#1 362987285 -24827848 24827849#9 -362987285 -23459720#1"/>
    </vehicle>
    <vehicle id="flow_356331765_1.7" depart="5400.00">
        <route edges="356331765 45818139#0 45818139#1 45818139#3 -45818139#4 -45818139#2 -45818139#0 356331769#0 356331769#1 356331768"/>
    </vehicle>
    <vehicle id="flow_172790916#1_1.11" depart="5485.72">
        <route edges="172790916#1 172790916#2 356331770#0 356331770#1 -678630296#1 -834337140#1 834337140#1 678630296#0 -356331770#2 -356331770#0 -172790916#2 -172790916#1"/>
    </vehicle>
    <vehicle id="flow_356331765_1.8" depart="5657.14">
        <route edges="356331765 45818139#0 45818139#1 45818139#3 24827849#2 24827849#5 24827849#6 24827849#7 24827849#9 -362987285 -23459720#1"/>
    </vehicle>
    <vehicle id="flow_172790916#1_1.12" depart="5657.15">
        <route edges="172790916#1 172790916#2 356331770#0 356331770#1 24827849#2 24827849#5 24827849#6 24827849#7 -24827849#7 -24827849#6 -24827849#5 -24827849#4 -678630296#1 -834337140#1 834337140#1 678630296#0 -45818139#4 -45818139#2 -45818139#0 356331769#0 356331769#1 356331768"/>
    </vehicle>
    <vehicle id="flow_172790916#1_1.13" depart="5828.58">
        <route edges="172790916#1 172790916#2 356331770#0 356331770#1 -678630296#1 -834337140#1 -154244700#17 -154244700#16 -154244700#15 -154244700#14 -154244700#12 -154244700#11 154244700#11 154244700#12 154244700#14 154244700#15 154244700#16 154244700#17 834337140#1 678630296#0 -45818139#4 -45818139#2 -45818139#0 356331769#0 356331769#1 356331768"/>
    </vehicle>
    <vehicle id="flow_356331765_1.9" depart="5914.29">
        <route edges="356331765 45818139#0 45818139#1 45818139#3 24827849#2 24827849#5 24827849#6 24827849#7 24827849#9 -362987285 -23459720#1"/>
    </vehicle>
    <vehicle id="flow_172790916#1_1.14" depart="6000.01">
        <route edges="172790916#1 172790916#2 356331770#0 356331770#1 -678630296#1 -834337140#1 834337140#1 678630296#0 -45818139#4 -45818139#2 -45818139#0 356331769#0 356331769#1 356331768"/>
    </vehicle>
    <vehicle id="flow_356331765_1.10" depart="6171.43">
        <route edges="356331765 45818139#0 45818139#1 45818139#3 -45818139#4 -45818139#2 -45818139#0 356331769#0 356331769#1 356331768"/>
    </vehicle>
    <vehicle id="flow_172790916#1_1.15" depart="6171.44">
        <route edges="172790916#1 172790916#2 356331770#0 356331770#1 -356331770#2 -356331770#0 -172790916#2 -172790916#1"/>
    </vehicle>
    <vehicle id="flow_172790916#1_1.16" depart="6342.86">
        <route edges="172790916#1 172790916#2 356331770#0 356331770#1 24827849#2 24827849#5 24827849#6 24827849#7 24827849#9 -24827848 -24827849#7 -24827849#6 -24827849#5 -24827849#4 -356331770#2 -356331770#0 -172790916#2 -172790916#1"/>
    </vehicle>
    <vehicle id="flow_356331765_1.11" depart="6428.57">
        <route edges="356331765 45818139#0 45818139#1 45818139#3 -678630296#1 -834337140#1 834337140#1 678630296#0 -45818139#4 -45818139#2 -45818139#0 356331769#0 356331769#1 356331768"/>
    </vehicle>
    <vehicle id="flow_172790916#1_1.17" depart="6514.29">
        <route edges="172790916#1 172790916#2 356331770#0 356331770#1 24827849#2 24827849#5 24827849#6 24827849#7 -24827849#7 -24827849#6 -24827849#5 -24827849#4 -45818139#4 -45818139#2 -45818139#0 356331769#0 356331769#1 356331768"/>
    </vehicle>
    <vehicle id="flow_356331765_1.12" depart="6685.72">
        <route edges="356331765 45818139#0 45818139#1 45818139#3 -356331770#2 -356331770#0 -172790916#2 -172790916#1"/>
    </vehicle>
    <vehicle id="flow_172790916#1_1.18" depart="6685.72">
        <route edges="172790916#1 172790916#2 356331770#0 356331770#1 24827849#2 24827849#5 24827849#6 24827849#7 -24827849#7 -24827849#6 -24827849#5 -24827849#4 -678630296#1 -834337140#1 -154244700#17 -154244700#16 -154244700#15 -154244700#14 -154244700#12 -154244700#11 -154244700#8 -154244700#7 -154244700#6 -154244700#5"/>
    </vehicle>
    <vehicle id="flow_172790916#1_1.19" depart="6857.15">
        <route edges="172790916#1 172790916#2 356331770#0 356331770#1 -356331770#2 -356331770#0 -172790916#2 -172790916#1"/>
    </vehicle>
    <vehicle id="flow_356331765_1.13" depart="6942.86">
        <route edges="356331765 45818139#0 45818139#1 45818139#3 -356331770#2 -356331770#0 -172790916#2 -172790916#1"/>
    </vehicle>
    <vehicle id="flow_172790916#1_1.20" depart="7028.58">
        <route edges="172790916#1 172790916#2 356331770#0 356331770#1 -678630296#1 -834337140#1 -154244700#17 -154244700#16 -154244700#15 -154244700#14 -154244700#12 -154244700#11 -154244700#8 -154244700#7 -154244700#6 -154244700#5"/>
    </vehicle>
    <vehicle id="flow_154244700#5_2.0" depart="7200.00">
        <route edges="154244700#5 154244700#6 154244700#7 154244700#8 -154244700#8 -154244700#7 -154244700#6 -154244700#5"/>
    </vehicle>
    <vehicle id="flow_172790916#1_2.0" depart="7200.00">
        <route edges="172790916#1 172790916#2 356331770#0 356331770#1 -678630296#1 -834337140#1 834337140#1 678630296#0 -45818139#4 -45818139#2 -45818139#0 356331769#0 356331769#1 356331768"/>
    </vehicle>
    <vehicle id="flow_23459720#1_2.0" depart="7200.00">
        <route edges="23459720#1 362987285 -24827848 24827849#9 -362987285 -23459720#1"/>
    </vehicle>
    <vehicle id="flow_356331765_2.0" depart="7200.00">